<?xml version="1.0" encoding="UTF-8"?>

<!-- generated on 2024-12-01 20:32:08.326561 by osmWebWizard.py v1_21_0+1083-291fe701fec
<configuration>
    <net-file value="C:\Users\ST\2024-12-01-20-30-08\osm.net.xml.gz"/>
    <output-trip-file value="C:\Users\ST\2024-12-01-20-30-08\osm.motorcycle.trips.xml"/>
    <route-file value="C:\Users\ST\2024-12-01-20-30-08\osm.motorcycle.rou.xml"/>
    <prefix value="motorcycle"/>
    <trip-attributes value="departLane=&quot;best&quot;"/>
    <fringe-start-attributes value="departSpeed=&quot;max&quot;"/>
    <vehicle-class value="motorcycle"/>
    <fringe-factor value="1.01"/>
    <vclass value="motorcycle"/>
    <via-edge-types value="highway.motorway,highway.motorway_link,highway.trunk_link,highway.primary_link,highway.secondary_link,highway.tertiary_link"/>
    <max-distance value="1200.0"/>
    <remove-loops value="True"/>
    <validate value="True"/>
    <insertion-density value="6.0"/>
</configuration>
-->

<!-- generated on 2024-12-01 20:32:06 by Eclipse SUMO duarouter Version v1_21_0+1083-291fe701fec
<duarouterConfiguration xmlns:xsi="http://www.w3.org/2001/XMLSchema-instance" xsi:noNamespaceSchemaLocation="http://sumo.dlr.de/xsd/duarouterConfiguration.xsd">

    <input>
        <net-file value="C:\Users\ST\2024-12-01-20-30-08\osm.net.xml.gz"/>
        <route-files value="C:\Users\ST\2024-12-01-20-30-08\osm.motorcycle.trips.xml"/>
    </input>

    <output>
        <output-file value="C:\Users\ST\2024-12-01-20-30-08\osm.motorcycle.trips.xml.tmp"/>
        <alternatives-output value="NUL"/>
        <write-trips value="true"/>
    </output>

    <processing>
        <remove-loops value="true"/>
    </processing>

    <time>
        <begin value="0.0"/>
        <end value="3600.0"/>
    </time>

    <report>
        <no-warnings value="true"/>
        <ignore-errors value="true"/>
        <no-step-log value="true"/>
    </report>

</duarouterConfiguration>
-->

<routes xmlns:xsi="http://www.w3.org/2001/XMLSchema-instance" xsi:noNamespaceSchemaLocation="http://sumo.dlr.de/xsd/routes_file.xsd">
    <vType id="motorcycle_motorcycle" vClass="motorcycle"/>
    <trip id="motorcycle0" type="motorcycle_motorcycle" depart="0.00" departLane="best" from="616934809#4" to="569071013"/>
    <trip id="motorcycle1" type="motorcycle_motorcycle" depart="0.67" departLane="best" from="24850888#14" to="24850741#4"/>
    <trip id="motorcycle2" type="motorcycle_motorcycle" depart="1.34" departLane="best" from="-25165140#1" to="-25165868#0"/>
    <trip id="motorcycle3" type="motorcycle_motorcycle" depart="2.01" departLane="best" from="25154576#0" to="-1313576249"/>
    <trip id="motorcycle4" type="motorcycle_motorcycle" depart="2.68" departLane="best" from="1243740731#2" to="24689912#6"/>
    <trip id="motorcycle5" type="motorcycle_motorcycle" depart="3.35" departLane="best" from="859865338" to="24866767#0"/>
    <trip id="motorcycle6" type="motorcycle_motorcycle" depart="4.02" departLane="best" from="25154749#3" to="222233483#1"/>
    <trip id="motorcycle7" type="motorcycle_motorcycle" depart="4.69" departLane="best" from="24715534#6" to="24850888#3"/>
    <trip id="motorcycle8" type="motorcycle_motorcycle" depart="5.35" departLane="best" from="617638518#0" to="25154587#0"/>
    <trip id="motorcycle9" type="motorcycle_motorcycle" depart="6.02" departLane="best" from="833679596#2" to="25154279#6"/>
    <trip id="motorcycle10" type="motorcycle_motorcycle" depart="6.69" departLane="best" from="-25164658#0" to="24936670#5"/>
    <trip id="motorcycle11" type="motorcycle_motorcycle" depart="7.36" departLane="best" from="24935938#1" to="25154705#0"/>
    <trip id="motorcycle12" type="motorcycle_motorcycle" depart="8.03" departLane="best" from="24850897#0" to="24894036#14"/>
    <trip id="motorcycle13" type="motorcycle_motorcycle" depart="8.70" departLane="best" from="616921713#6" to="518424334"/>
    <trip id="motorcycle14" type="motorcycle_motorcycle" depart="9.37" departLane="best" from="688753796#0" to="1338737876#1"/>
    <trip id="motorcycle15" type="motorcycle_motorcycle" depart="10.04" departLane="best" from="25154706#0" to="25154621#0"/>
    <trip id="motorcycle16" type="motorcycle_motorcycle" depart="10.71" departLane="best" from="-25154734#2" to="25154932#4"/>
    <trip id="motorcycle17" type="motorcycle_motorcycle" depart="11.38" departLane="best" from="846008893#0" to="1319627995"/>
    <trip id="motorcycle18" type="motorcycle_motorcycle" depart="12.05" departLane="best" from="957492857#1" to="-935465012#0"/>
    <trip id="motorcycle19" type="motorcycle_motorcycle" depart="12.72" departLane="best" from="844355046#0" to="843988379"/>
    <trip id="motorcycle20" type="motorcycle_motorcycle" depart="13.39" departLane="best" departSpeed="max" from="-511864836" to="25154707#7"/>
    <trip id="motorcycle21" type="motorcycle_motorcycle" depart="14.06" departLane="best" from="654817814#2" to="25154931#5"/>
    <trip id="motorcycle22" type="motorcycle_motorcycle" depart="14.73" departLane="best" from="24704315#6" to="688967694#1"/>
    <trip id="motorcycle23" type="motorcycle_motorcycle" depart="15.39" departLane="best" from="866439043#0" to="-619286430#14"/>
    <trip id="motorcycle24" type="motorcycle_motorcycle" depart="16.06" departLane="best" from="867035786" to="222239500#4"/>
    <trip id="motorcycle25" type="motorcycle_motorcycle" depart="16.73" departLane="best" from="482296565#5" to="24713315#1"/>
    <trip id="motorcycle26" type="motorcycle_motorcycle" depart="17.40" departLane="best" from="-830376495#1" to="24850811#1"/>
    <trip id="motorcycle27" type="motorcycle_motorcycle" depart="18.07" departLane="best" from="866463954" to="569071025#3"/>
    <trip id="motorcycle28" type="motorcycle_motorcycle" depart="18.74" departLane="best" from="24836282#2" to="1243631654"/>
    <trip id="motorcycle29" type="motorcycle_motorcycle" depart="19.41" departLane="best" from="618106741#1" to="361358030#0"/>
    <trip id="motorcycle30" type="motorcycle_motorcycle" depart="20.08" departLane="best" from="1180580171" to="569385807"/>
    <trip id="motorcycle31" type="motorcycle_motorcycle" depart="20.75" departLane="best" from="25154405#0" to="-25154557#1"/>
    <trip id="motorcycle32" type="motorcycle_motorcycle" depart="21.42" departLane="best" from="124514599#0" to="569385785#3"/>
    <trip id="motorcycle33" type="motorcycle_motorcycle" depart="22.09" departLane="best" from="24734959#1" to="24736783#2"/>
    <trip id="motorcycle34" type="motorcycle_motorcycle" depart="22.76" departLane="best" from="683249547#1" to="866800366#1"/>
    <trip id="motorcycle35" type="motorcycle_motorcycle" depart="23.43" departLane="best" from="124048430#1" to="124049467#1"/>
    <trip id="motorcycle36" type="motorcycle_motorcycle" depart="24.10" departLane="best" from="24713969#2" to="569112537#6"/>
    <trip id="motorcycle37" type="motorcycle_motorcycle" depart="24.77" departLane="best" from="24894036#3" to="833679596#0"/>
    <trip id="motorcycle38" type="motorcycle_motorcycle" depart="25.43" departLane="best" from="569404312#0" to="-617718965#3"/>
    <trip id="motorcycle40" type="motorcycle_motorcycle" depart="26.77" departLane="best" from="24858146#4" to="24836017#9"/>
    <trip id="motorcycle41" type="motorcycle_motorcycle" depart="27.44" departLane="best" from="457847969" to="867030713"/>
    <trip id="motorcycle42" type="motorcycle_motorcycle" depart="28.11" departLane="best" from="24858500#2" to="616923752#0"/>
    <trip id="motorcycle43" type="motorcycle_motorcycle" depart="28.78" departLane="best" from="688967693" to="24684745#9"/>
    <trip id="motorcycle44" type="motorcycle_motorcycle" depart="29.45" departLane="best" from="24938334#2" to="24715534#7"/>
    <trip id="motorcycle45" type="motorcycle_motorcycle" depart="30.12" departLane="best" from="569384328#0" to="24696971#1"/>
    <trip id="motorcycle46" type="motorcycle_motorcycle" depart="30.79" departLane="best" from="25154534" to="24850942"/>
    <trip id="motorcycle47" type="motorcycle_motorcycle" depart="31.46" departLane="best" from="-25154706#7" to="1120235108#1"/>
    <trip id="motorcycle48" type="motorcycle_motorcycle" depart="32.13" departLane="best" from="919257630#1" to="-654605564"/>
    <trip id="motorcycle49" type="motorcycle_motorcycle" depart="32.80" departLane="best" from="24858860" to="685755047#2"/>
    <trip id="motorcycle50" type="motorcycle_motorcycle" depart="33.47" departLane="best" from="1198088179#1" to="1203822949#0"/>
    <trip id="motorcycle51" type="motorcycle_motorcycle" depart="34.14" departLane="best" from="569384302#0" to="569404306#6"/>
    <trip id="motorcycle52" type="motorcycle_motorcycle" depart="34.80" departLane="best" from="24734519#1" to="617525570#2"/>
    <trip id="motorcycle53" type="motorcycle_motorcycle" depart="35.47" departLane="best" from="908485634#4" to="458390869"/>
    <trip id="motorcycle54" type="motorcycle_motorcycle" depart="36.14" departLane="best" from="25154707#13" to="-25165140#0"/>
    <trip id="motorcycle55" type="motorcycle_motorcycle" depart="36.81" departLane="best" from="916017997#2" to="859448270#1"/>
    <trip id="motorcycle56" type="motorcycle_motorcycle" depart="37.48" departLane="best" from="24684984#13" to="24690689#1"/>
    <trip id="motorcycle57" type="motorcycle_motorcycle" depart="38.15" departLane="best" from="617633709#2" to="569404620#2"/>
    <trip id="motorcycle58" type="motorcycle_motorcycle" depart="38.82" departLane="best" from="25164395#1" to="77583286"/>
    <trip id="motorcycle59" type="motorcycle_motorcycle" depart="39.49" departLane="best" from="831172010#2" to="24858689#1"/>
    <trip id="motorcycle60" type="motorcycle_motorcycle" depart="40.16" departLane="best" from="-24941201" to="618098761#2"/>
    <trip id="motorcycle61" type="motorcycle_motorcycle" depart="40.83" departLane="best" from="130848187#4" to="859448270#0"/>
    <trip id="motorcycle62" type="motorcycle_motorcycle" depart="41.50" departLane="best" from="415123211" to="24700867#5"/>
    <trip id="motorcycle63" type="motorcycle_motorcycle" depart="42.17" departLane="best" from="24690455#1" to="617633711#1"/>
    <trip id="motorcycle64" type="motorcycle_motorcycle" depart="42.84" departLane="best" from="24936942#6" to="24850271#5"/>
    <trip id="motorcycle65" type="motorcycle_motorcycle" depart="43.51" departLane="best" from="271869796" to="569114956#1"/>
    <trip id="motorcycle66" type="motorcycle_motorcycle" depart="44.18" departLane="best" from="660019323#0" to="24866752#1"/>
    <trip id="motorcycle67" type="motorcycle_motorcycle" depart="44.84" departLane="best" from="1195940711#1" to="1228989385#1"/>
    <trip id="motorcycle68" type="motorcycle_motorcycle" depart="45.51" departLane="best" from="867125510#1" to="-25154749#2"/>
    <trip id="motorcycle69" type="motorcycle_motorcycle" depart="46.18" departLane="best" from="24704083#0" to="930957349"/>
    <trip id="motorcycle70" type="motorcycle_motorcycle" depart="46.85" departLane="best" from="24859102#0" to="124506586#3"/>
    <trip id="motorcycle71" type="motorcycle_motorcycle" depart="47.52" departLane="best" from="24858131#10" to="482298953"/>
    <trip id="motorcycle72" type="motorcycle_motorcycle" depart="48.19" departLane="best" from="-25154977#2" to="25154754#2"/>
    <trip id="motorcycle73" type="motorcycle_motorcycle" depart="48.86" departLane="best" from="-617633721#2" to="654836788#6"/>
    <trip id="motorcycle74" type="motorcycle_motorcycle" depart="49.53" departLane="best" from="24850778#2" to="24715664#5"/>
    <trip id="motorcycle75" type="motorcycle_motorcycle" depart="50.20" departLane="best" from="24836017#15" to="616812010#5"/>
    <trip id="motorcycle76" type="motorcycle_motorcycle" depart="50.87" departLane="best" from="-25164560" to="-25154706#0"/>
    <trip id="motorcycle77" type="motorcycle_motorcycle" depart="51.54" departLane="best" from="24858787#0" to="235361237#2"/>
    <trip id="motorcycle78" type="motorcycle_motorcycle" depart="52.21" departLane="best" from="25154863#1" to="25154851#1"/>
    <trip id="motorcycle79" type="motorcycle_motorcycle" depart="52.88" departLane="best" from="654836788#8" to="1311376499#5"/>
    <trip id="motorcycle80" type="motorcycle_motorcycle" depart="53.55" departLane="best" from="25154725#3" to="618098747#8"/>
    <trip id="motorcycle81" type="motorcycle_motorcycle" depart="54.22" departLane="best" from="1120235106#1" to="-25154754#4"/>
    <trip id="motorcycle82" type="motorcycle_motorcycle" depart="54.88" departLane="best" from="24704056#19" to="1152766063#1"/>
    <trip id="motorcycle83" type="motorcycle_motorcycle" depart="55.55" departLane="best" from="-618098742#0" to="425206430#2"/>
    <trip id="motorcycle84" type="motorcycle_motorcycle" depart="56.22" departLane="best" from="-25154844#0" to="-25165170#1"/>
    <trip id="motorcycle85" type="motorcycle_motorcycle" depart="56.89" departLane="best" from="1135284435" to="24738440#3"/>
    <trip id="motorcycle86" type="motorcycle_motorcycle" depart="57.56" departLane="best" from="1161803071" to="1217151535#0"/>
    <trip id="motorcycle87" type="motorcycle_motorcycle" depart="58.23" departLane="best" from="654817814#5" to="845528493#13"/>
    <trip id="motorcycle88" type="motorcycle_motorcycle" depart="58.90" departLane="best" from="438721545#4" to="618098747#5"/>
    <trip id="motorcycle89" type="motorcycle_motorcycle" depart="59.57" departLane="best" from="654529967#10" to="569385806#1"/>
    <trip id="motorcycle90" type="motorcycle_motorcycle" depart="60.24" departLane="best" from="654817814#4" to="25154704#0"/>
    <trip id="motorcycle91" type="motorcycle_motorcycle" depart="60.91" departLane="best" from="-618053641" to="24689815#5"/>
    <trip id="motorcycle92" type="motorcycle_motorcycle" depart="61.58" departLane="best" from="24850778#2" to="618098749#0"/>
    <trip id="motorcycle93" type="motorcycle_motorcycle" depart="62.25" departLane="best" from="130848192#6" to="1026269657#4"/>
    <trip id="motorcycle94" type="motorcycle_motorcycle" depart="62.92" departLane="best" from="24858153#5" to="302116345"/>
    <trip id="motorcycle95" type="motorcycle_motorcycle" depart="63.59" departLane="best" from="25154440#3" to="25154258#16"/>
    <trip id="motorcycle96" type="motorcycle_motorcycle" depart="64.26" departLane="best" from="618028624#1" to="-24866604#0"/>
    <trip id="motorcycle97" type="motorcycle_motorcycle" depart="64.92" departLane="best" from="25154787#1" to="25165212#0"/>
    <trip id="motorcycle98" type="motorcycle_motorcycle" depart="65.59" departLane="best" from="24849974#5" to="451242915#0"/>
    <trip id="motorcycle99" type="motorcycle_motorcycle" depart="66.26" departLane="best" from="220844296#0" to="220844294#2"/>
    <trip id="motorcycle100" type="motorcycle_motorcycle" depart="66.93" departLane="best" from="865394856#4" to="395300700#0"/>
    <trip id="motorcycle101" type="motorcycle_motorcycle" depart="67.60" departLane="best" from="25154707#0" to="293370865#0"/>
    <trip id="motorcycle102" type="motorcycle_motorcycle" depart="68.27" departLane="best" from="24859098#2" to="569112553#3"/>
    <trip id="motorcycle103" type="motorcycle_motorcycle" depart="68.94" departLane="best" from="25165182#3" to="654821513#0"/>
    <trip id="motorcycle104" type="motorcycle_motorcycle" depart="69.61" departLane="best" from="312086255#1" to="619286430#18"/>
    <trip id="motorcycle105" type="motorcycle_motorcycle" depart="70.28" departLane="best" from="-25154907#8" to="-25154739#5"/>
    <trip id="motorcycle106" type="motorcycle_motorcycle" depart="70.95" departLane="best" from="222239502#5" to="1337069334#0"/>
    <trip id="motorcycle107" type="motorcycle_motorcycle" depart="71.62" departLane="best" from="-24735000#2" to="25154621#0"/>
    <trip id="motorcycle108" type="motorcycle_motorcycle" depart="72.29" departLane="best" from="25154707#5" to="-25154907#8"/>
    <trip id="motorcycle109" type="motorcycle_motorcycle" depart="72.96" departLane="best" from="25154220#4" to="617638518#2"/>
    <trip id="motorcycle110" type="motorcycle_motorcycle" depart="73.63" departLane="best" from="-24940929#2" to="-24942553#0"/>
    <trip id="motorcycle111" type="motorcycle_motorcycle" depart="74.30" departLane="best" from="25165386" to="25154270#1"/>
    <trip id="motorcycle112" type="motorcycle_motorcycle" depart="74.96" departLane="best" from="618043852#0" to="617887674#2"/>
    <trip id="motorcycle113" type="motorcycle_motorcycle" depart="75.63" departLane="best" from="25154439#2" to="24702545#0"/>
    <trip id="motorcycle114" type="motorcycle_motorcycle" depart="76.30" departLane="best" from="1150556477#4" to="859433029#0"/>
    <trip id="motorcycle115" type="motorcycle_motorcycle" depart="76.97" departLane="best" departSpeed="max" from="24734070#0" to="24736326#0"/>
    <trip id="motorcycle116" type="motorcycle_motorcycle" depart="77.64" departLane="best" from="412568716#0" to="569385784#1"/>
    <trip id="motorcycle117" type="motorcycle_motorcycle" depart="78.31" departLane="best" departSpeed="max" from="25206949" to="1175200104#1"/>
    <trip id="motorcycle118" type="motorcycle_motorcycle" depart="78.98" departLane="best" from="1313577058#1" to="-25154739#1"/>
    <trip id="motorcycle119" type="motorcycle_motorcycle" depart="79.65" departLane="best" from="24689912#7" to="24689815#2"/>
    <trip id="motorcycle120" type="motorcycle_motorcycle" depart="80.32" departLane="best" from="617719001#0" to="-1338737881#1"/>
    <trip id="motorcycle121" type="motorcycle_motorcycle" depart="80.99" departLane="best" from="25154855" to="25154568#2"/>
    <trip id="motorcycle122" type="motorcycle_motorcycle" depart="81.66" departLane="best" from="859464831#0" to="1157287089#1"/>
    <trip id="motorcycle123" type="motorcycle_motorcycle" depart="82.33" departLane="best" from="617638495#11" to="683249539#0"/>
    <trip id="motorcycle124" type="motorcycle_motorcycle" depart="83.00" departLane="best" from="1163707423" to="-932616399#0"/>
    <trip id="motorcycle125" type="motorcycle_motorcycle" depart="83.67" departLane="best" from="24704056#18" to="1337069334#0"/>
    <trip id="motorcycle126" type="motorcycle_motorcycle" depart="84.33" departLane="best" from="617638499#5" to="866808123#1"/>
    <trip id="motorcycle127" type="motorcycle_motorcycle" depart="85.00" departLane="best" from="-24703062#0" to="456118089"/>
    <trip id="motorcycle128" type="motorcycle_motorcycle" depart="85.67" departLane="best" from="24850243#3" to="24942553#1"/>
    <trip id="motorcycle129" type="motorcycle_motorcycle" depart="86.34" departLane="best" from="24700910#1" to="-619286430#6"/>
    <trip id="motorcycle130" type="motorcycle_motorcycle" depart="87.01" departLane="best" departSpeed="max" from="-866457857" to="1120485256"/>
    <trip id="motorcycle131" type="motorcycle_motorcycle" depart="87.68" departLane="best" from="24895408#11" to="25154577#8"/>
    <trip id="motorcycle132" type="motorcycle_motorcycle" depart="88.35" departLane="best" from="131387436#1" to="617638499#4"/>
    <trip id="motorcycle133" type="motorcycle_motorcycle" depart="89.02" departLane="best" from="-25155018#1" to="25154780#0"/>
    <trip id="motorcycle134" type="motorcycle_motorcycle" depart="89.69" departLane="best" from="25154221#6" to="25154844#0"/>
    <trip id="motorcycle135" type="motorcycle_motorcycle" depart="90.36" departLane="best" from="-25165009#3" to="25154260#16"/>
    <trip id="motorcycle136" type="motorcycle_motorcycle" depart="91.03" departLane="best" from="618284672#4" to="24866608"/>
    <trip id="motorcycle137" type="motorcycle_motorcycle" depart="91.70" departLane="best" from="-25154788#2" to="921052639"/>
    <trip id="motorcycle138" type="motorcycle_motorcycle" depart="92.37" departLane="best" from="-456118081#1" to="24734723#1"/>
    <trip id="motorcycle139" type="motorcycle_motorcycle" depart="93.04" departLane="best" from="-1218945701#1" to="688764080#5"/>
    <trip id="motorcycle140" type="motorcycle_motorcycle" depart="93.71" departLane="best" from="-25154728#2" to="25154220#0"/>
    <trip id="motorcycle141" type="motorcycle_motorcycle" depart="94.37" departLane="best" from="616927350#3" to="24703903#1"/>
    <trip id="motorcycle142" type="motorcycle_motorcycle" depart="95.04" departLane="best" from="-25154749#2" to="866745480#1"/>
    <trip id="motorcycle143" type="motorcycle_motorcycle" depart="95.71" departLane="best" from="352403336#1" to="24858131#4"/>
    <trip id="motorcycle144" type="motorcycle_motorcycle" depart="96.38" departLane="best" from="25154738#2" to="-866808128#0"/>
    <trip id="motorcycle145" type="motorcycle_motorcycle" depart="97.05" departLane="best" from="99967614#0" to="24936264"/>
    <trip id="motorcycle146" type="motorcycle_motorcycle" depart="97.72" departLane="best" from="859731796#0" to="24836019#0"/>
    <trip id="motorcycle147" type="motorcycle_motorcycle" depart="98.39" departLane="best" departSpeed="max" from="25154894#0" to="24850752#5"/>
    <trip id="motorcycle148" type="motorcycle_motorcycle" depart="99.06" departLane="best" from="1144999741#1" to="616812006"/>
    <trip id="motorcycle149" type="motorcycle_motorcycle" depart="99.73" departLane="best" from="24936942#14" to="859882524#2"/>
    <trip id="motorcycle150" type="motorcycle_motorcycle" depart="100.40" departLane="best" from="-24703065#0" to="-25154518#0"/>
    <trip id="motorcycle151" type="motorcycle_motorcycle" depart="101.07" departLane="best" from="-25165868#0" to="1120235106#0"/>
    <trip id="motorcycle153" type="motorcycle_motorcycle" depart="102.41" departLane="best" from="25154781#2" to="-683254496#0"/>
    <trip id="motorcycle154" type="motorcycle_motorcycle" depart="103.08" departLane="best" from="24935938#2" to="-24942576"/>
    <trip id="motorcycle155" type="motorcycle_motorcycle" depart="103.75" departLane="best" from="-24850929#0" to="865430974#11"/>
    <trip id="motorcycle156" type="motorcycle_motorcycle" depart="104.41" departLane="best" from="24702545#1" to="1120235112"/>
    <trip id="motorcycle157" type="motorcycle_motorcycle" depart="105.08" departLane="best" from="24713397#2" to="617638502#0"/>
    <trip id="motorcycle158" type="motorcycle_motorcycle" depart="105.75" departLane="best" from="569112561#1" to="480527470#3"/>
    <trip id="motorcycle159" type="motorcycle_motorcycle" depart="106.42" departLane="best" from="616583448#2" to="395297016#1"/>
    <trip id="motorcycle160" type="motorcycle_motorcycle" depart="107.09" departLane="best" from="1174482718#0" to="24859096#1"/>
    <trip id="motorcycle161" type="motorcycle_motorcycle" depart="107.76" departLane="best" from="-25165140#3" to="222233483#1"/>
    <trip id="motorcycle162" type="motorcycle_motorcycle" depart="108.43" departLane="best" from="24858252#1" to="904173903#1"/>
    <trip id="motorcycle163" type="motorcycle_motorcycle" depart="109.10" departLane="best" from="24850888#0" to="24936503#3"/>
    <trip id="motorcycle164" type="motorcycle_motorcycle" depart="109.77" departLane="best" from="866745480#4" to="24713410#0"/>
    <trip id="motorcycle165" type="motorcycle_motorcycle" depart="110.44" departLane="best" departSpeed="max" from="24713306#0" to="24713947#1"/>
    <trip id="motorcycle166" type="motorcycle_motorcycle" depart="111.11" departLane="best" from="1180583565#0" to="24702680#2"/>
    <trip id="motorcycle167" type="motorcycle_motorcycle" depart="111.78" departLane="best" from="24690022#1" to="569385793"/>
    <trip id="motorcycle168" type="motorcycle_motorcycle" depart="112.45" departLane="best" from="130848192#9" to="24836146#0"/>
    <trip id="motorcycle169" type="motorcycle_motorcycle" depart="113.12" departLane="best" from="24690022#0" to="569384328#0"/>
    <trip id="motorcycle170" type="motorcycle_motorcycle" depart="113.79" departLane="best" from="618363133#5" to="618098760#5"/>
    <trip id="motorcycle172" type="motorcycle_motorcycle" depart="115.12" departLane="best" from="25154260#5" to="25154405#10"/>
    <trip id="motorcycle173" type="motorcycle_motorcycle" depart="115.79" departLane="best" from="-24859064#1" to="24847028#2"/>
    <trip id="motorcycle174" type="motorcycle_motorcycle" depart="116.46" departLane="best" from="24936503#0" to="24935938#2"/>
    <trip id="motorcycle175" type="motorcycle_motorcycle" depart="117.13" departLane="best" from="-25154779#2" to="-332450395#2"/>
    <trip id="motorcycle176" type="motorcycle_motorcycle" depart="117.80" departLane="best" from="-25164552" to="-866756500"/>
    <trip id="motorcycle177" type="motorcycle_motorcycle" depart="118.47" departLane="best" from="569385792#0" to="415123211"/>
    <trip id="motorcycle178" type="motorcycle_motorcycle" depart="119.14" departLane="best" from="1135284435" to="903409237#1"/>
    <trip id="motorcycle179" type="motorcycle_motorcycle" depart="119.81" departLane="best" from="866398742#4" to="24738927"/>
    <trip id="motorcycle180" type="motorcycle_motorcycle" depart="120.48" departLane="best" from="616927355#7" to="1150560853#1"/>
    <trip id="motorcycle181" type="motorcycle_motorcycle" depart="121.15" departLane="best" from="24715534#11" to="25154887#0"/>
    <trip id="motorcycle182" type="motorcycle_motorcycle" depart="121.82" departLane="best" from="25154467" to="25206950#6"/>
    <trip id="motorcycle183" type="motorcycle_motorcycle" depart="122.49" departLane="best" from="456118094#2" to="157371388#0"/>
    <trip id="motorcycle184" type="motorcycle_motorcycle" depart="123.16" departLane="best" from="616923752#4" to="412568715"/>
    <trip id="motorcycle185" type="motorcycle_motorcycle" depart="123.83" departLane="best" departSpeed="max" from="-885826029" to="617887672#10"/>
    <trip id="motorcycle186" type="motorcycle_motorcycle" depart="124.49" departLane="best" from="569114965#1" to="685755047#1"/>
    <trip id="motorcycle187" type="motorcycle_motorcycle" depart="125.16" departLane="best" from="25154300#1" to="25154260#10"/>
    <trip id="motorcycle188" type="motorcycle_motorcycle" depart="125.83" departLane="best" from="617633716#3" to="24690469"/>
    <trip id="motorcycle189" type="motorcycle_motorcycle" depart="126.50" departLane="best" from="-618102066" to="24940432#2"/>
    <trip id="motorcycle190" type="motorcycle_motorcycle" depart="127.17" departLane="best" from="25154861#1" to="222223639#3"/>
    <trip id="motorcycle191" type="motorcycle_motorcycle" depart="127.84" departLane="best" from="-24936380#0" to="-25154749#0"/>
    <trip id="motorcycle192" type="motorcycle_motorcycle" depart="128.51" departLane="best" from="-25164478#2" to="25154577#2"/>
    <trip id="motorcycle193" type="motorcycle_motorcycle" depart="129.18" departLane="best" from="617831539#4" to="24850741#1"/>
    <trip id="motorcycle194" type="motorcycle_motorcycle" depart="129.85" departLane="best" from="25154868#5" to="-25154977#1"/>
    <trip id="motorcycle195" type="motorcycle_motorcycle" depart="130.52" departLane="best" from="683254496#1" to="25154707#4"/>
    <trip id="motorcycle196" type="motorcycle_motorcycle" depart="131.19" departLane="best" from="654836792#1" to="24704315#3"/>
    <trip id="motorcycle197" type="motorcycle_motorcycle" depart="131.86" departLane="best" from="24940031#1" to="617831539#1"/>
    <trip id="motorcycle198" type="motorcycle_motorcycle" depart="132.53" departLane="best" from="939529076" to="609012758#0"/>
    <trip id="motorcycle199" type="motorcycle_motorcycle" depart="133.20" departLane="best" from="616928402#0" to="24703741#2"/>
    <trip id="motorcycle200" type="motorcycle_motorcycle" depart="133.86" departLane="best" from="-654605564" to="1122164354#1"/>
    <trip id="motorcycle201" type="motorcycle_motorcycle" depart="134.53" departLane="best" from="-25165009#5" to="1337069334#2"/>
    <trip id="motorcycle202" type="motorcycle_motorcycle" depart="135.20" departLane="best" from="24736421#1" to="25154264#6"/>
    <trip id="motorcycle203" type="motorcycle_motorcycle" depart="135.87" departLane="best" from="24836098#4" to="361358030#3"/>
    <trip id="motorcycle204" type="motorcycle_motorcycle" depart="136.54" departLane="best" from="412804547#1" to="25154931#3"/>
    <trip id="motorcycle205" type="motorcycle_motorcycle" depart="137.21" departLane="best" from="-846008894#0" to="854280395"/>
    <trip id="motorcycle206" type="motorcycle_motorcycle" depart="137.88" departLane="best" from="-25154706#3" to="-25154749#3"/>
    <trip id="motorcycle207" type="motorcycle_motorcycle" depart="138.55" departLane="best" from="1161797064#2" to="24703903#1"/>
    <trip id="motorcycle208" type="motorcycle_motorcycle" depart="139.22" departLane="best" from="1233008421" to="848082742#2"/>
    <trip id="motorcycle209" type="motorcycle_motorcycle" depart="139.89" departLane="best" from="618284684#7" to="859882524#4"/>
    <trip id="motorcycle210" type="motorcycle_motorcycle" depart="140.56" departLane="best" from="-25154707#7" to="-935465012#2"/>
    <trip id="motorcycle211" type="motorcycle_motorcycle" depart="141.23" departLane="best" from="859478072#3" to="24850201#3"/>
    <trip id="motorcycle212" type="motorcycle_motorcycle" depart="141.90" departLane="best" from="25154777#2" to="25154777#1"/>
    <trip id="motorcycle213" type="motorcycle_motorcycle" depart="142.57" departLane="best" departSpeed="max" from="656096035" to="616927355#4"/>
    <trip id="motorcycle214" type="motorcycle_motorcycle" depart="143.24" departLane="best" from="866466952" to="24847645#0"/>
    <trip id="motorcycle215" type="motorcycle_motorcycle" depart="143.90" departLane="best" departSpeed="max" from="-885041273" to="1122164354#1"/>
    <trip id="motorcycle216" type="motorcycle_motorcycle" depart="144.57" departLane="best" from="24696971#1" to="569114972#0"/>
    <trip id="motorcycle217" type="motorcycle_motorcycle" depart="145.24" departLane="best" from="866745480#4" to="866745480#2"/>
    <trip id="motorcycle218" type="motorcycle_motorcycle" depart="145.91" departLane="best" from="-903585156" to="617628987#0"/>