<?xml version="1.0" encoding="UTF-8"?>

<!-- generated on 2024-12-01 20:31:29.628334 by osmWebWizard.py v1_21_0+1083-291fe701fec
<configuration>
    <net-file value="C:\Users\ST\2024-12-01-20-30-08\osm.net.xml.gz"/>
    <output-trip-file value="C:\Users\ST\2024-12-01-20-30-08\osm.bicycle.trips.xml"/>
    <route-file value="C:\Users\ST\2024-12-01-20-30-08\osm.bicycle.rou.xml"/>
    <prefix value="bike"/>
    <trip-attributes value="departLane=&quot;best&quot;"/>
    <fringe-start-attributes value="departSpeed=&quot;max&quot;"/>
    <vehicle-class value="bicycle"/>
    <fringe-factor value="1.01"/>
    <vclass value="bicycle"/>
    <via-edge-types value="highway.motorway,highway.motorway_link,highway.trunk_link,highway.primary_link,highway.secondary_link,highway.tertiary_link"/>
    <max-distance value="8000.0"/>
    <remove-loops value="True"/>
    <validate value="True"/>
    <insertion-density value="16.0"/>
</configuration>
-->

<!-- generated on 2024-12-01 20:31:05 by Eclipse SUMO duarouter Version v1_21_0+1083-291fe701fec
<duarouterConfiguration xmlns:xsi="http://www.w3.org/2001/XMLSchema-instance" xsi:noNamespaceSchemaLocation="http://sumo.dlr.de/xsd/duarouterConfiguration.xsd">

    <input>
        <net-file value="C:\Users\ST\2024-12-01-20-30-08\osm.net.xml.gz"/>
        <route-files value="C:\Users\ST\2024-12-01-20-30-08\osm.bicycle.trips.xml"/>
    </input>

    <output>
        <output-file value="C:\Users\ST\2024-12-01-20-30-08\osm.bicycle.trips.xml.tmp"/>
        <alternatives-output value="NUL"/>
        <write-trips value="true"/>
    </output>

    <processing>
        <remove-loops value="true"/>
    </processing>

    <time>
        <begin value="0.0"/>
        <end value="3600.0"/>
    </time>

    <report>
        <no-warnings value="true"/>
        <ignore-errors value="true"/>
        <no-step-log value="true"/>
    </report>

</duarouterConfiguration>
-->

<routes xmlns:xsi="http://www.w3.org/2001/XMLSchema-instance" xsi:noNamespaceSchemaLocation="http://sumo.dlr.de/xsd/routes_file.xsd">
    <vType id="bike_bicycle" vClass="bicycle"/>
    <trip id="bike0" type="bike_bicycle" depart="0.00" departLane="best" from="395300684#2" to="-24685504"/>
    <trip id="bike1" type="bike_bicycle" depart="0.24" departLane="best" from="1180580851#0" to="1120485253"/>
    <trip id="bike2" type="bike_bicycle" depart="0.48" departLane="best" from="617638516#0" to="569404306#0"/>
    <trip id="bike3" type="bike_bicycle" depart="0.72" departLane="best" from="866720671" to="-25154907#8"/>
    <trip id="bike4" type="bike_bicycle" depart="0.96" departLane="best" from="24836017#1" to="-24700910#6"/>
    <trip id="bike5" type="bike_bicycle" depart="1.20" departLane="best" from="-927097659#0" to="24938330#1"/>
    <trip id="bike6" type="bike_bicycle" depart="1.44" departLane="best" from="1331636018" to="-903409237#2"/>
    <trip id="bike7" type="bike_bicycle" depart="1.68" departLane="best" from="438721545#5" to="25154589#2"/>
    <trip id="bike8" type="bike_bicycle" depart="1.91" departLane="best" departSpeed="max" from="-929664768" to="-25164658#3"/>
    <trip id="bike10" type="bike_bicycle" depart="2.39" departLane="best" from="660019322#2" to="854044801#0"/>
    <trip id="bike11" type="bike_bicycle" depart="2.63" departLane="best" from="222233483#11" to="1126988853"/>
    <trip id="bike12" type="bike_bicycle" depart="2.87" departLane="best" departSpeed="max" from="889425952" to="24684818#2"/>
    <trip id="bike13" type="bike_bicycle" depart="3.11" departLane="best" from="-25154977#0" to="-25164658#0"/>
    <trip id="bike14" type="bike_bicycle" depart="3.35" departLane="best" from="847800275#5" to="271869796"/>
    <trip id="bike15" type="bike_bicycle" depart="3.59" departLane="best" from="679945780#0" to="617638518#9"/>
    <trip id="bike16" type="bike_bicycle" depart="3.83" departLane="best" from="25154264#4" to="903915333"/>
    <trip id="bike17" type="bike_bicycle" depart="4.07" departLane="best" from="1122164357" to="25154704#3"/>
    <trip id="bike19" type="bike_bicycle" depart="4.55" departLane="best" from="856092869" to="25154907#3"/>
    <trip id="bike20" type="bike_bicycle" depart="4.79" departLane="best" from="616807402#0" to="-24850201#1"/>
    <trip id="bike22" type="bike_bicycle" depart="5.26" departLane="best" from="-25154739#9" to="1135284431#1"/>
    <trip id="bike23" type="bike_bicycle" depart="5.50" departLane="best" from="-25164733#1" to="1217183490#0"/>
    <trip id="bike24" type="bike_bicycle" depart="5.74" departLane="best" from="377353376#2" to="24702680#2"/>
    <trip id="bike25" type="bike_bicycle" depart="5.98" departLane="best" from="24696820#2" to="1063024503"/>
    <trip id="bike26" type="bike_bicycle" depart="6.22" departLane="best" from="1163740455#1" to="617628983#1"/>
    <trip id="bike27" type="bike_bicycle" depart="6.46" departLane="best" from="423872167#2" to="324151213#3"/>
    <trip id="bike28" type="bike_bicycle" depart="6.70" departLane="best" from="-885052500#0" to="617638518#4"/>
    <trip id="bike29" type="bike_bicycle" depart="6.94" departLane="best" departSpeed="max" from="-883759590" to="24713775#1"/>
    <trip id="bike30" type="bike_bicycle" depart="7.18" departLane="best" from="919257629#1" to="456118094#4"/>
    <trip id="bike31" type="bike_bicycle" depart="7.42" departLane="best" from="25154581#0" to="569406315#2"/>
    <trip id="bike32" type="bike_bicycle" depart="7.66" departLane="best" from="847324972#10" to="-619286430#6"/>
    <trip id="bike33" type="bike_bicycle" depart="7.90" departLane="best" from="1075177035" to="-24703065#2"/>
    <trip id="bike34" type="bike_bicycle" depart="8.14" departLane="best" from="128820820#1" to="1195940711#2"/>
    <trip id="bike35" type="bike_bicycle" depart="8.38" departLane="best" from="-897043298#0" to="887735910"/>
    <trip id="bike36" type="bike_bicycle" depart="8.61" departLane="best" from="865394856#2" to="1338737876#1"/>
    <trip id="bike37" type="bike_bicycle" depart="8.85" departLane="best" from="456118104#1" to="24735076#1"/>
    <trip id="bike38" type="bike_bicycle" depart="9.09" departLane="best" from="875318634#3" to="24858435#3"/>
    <trip id="bike39" type="bike_bicycle" depart="9.33" departLane="best" from="1163486043#7" to="1163486043#2"/>
    <trip id="bike41" type="bike_bicycle" depart="9.81" departLane="best" from="25154837#1" to="871487453"/>
    <trip id="bike42" type="bike_bicycle" depart="10.05" departLane="best" from="24715664#4" to="25164944#0"/>
    <trip id="bike44" type="bike_bicycle" depart="10.53" departLane="best" from="-25154931#6" to="-24850741#3"/>
    <trip id="bike45" type="bike_bicycle" depart="10.77" departLane="best" departSpeed="max" from="25205213#2" to="396109696#3"/>
    <trip id="bike46" type="bike_bicycle" depart="11.01" departLane="best" from="654529967#1" to="24836487#3"/>
    <trip id="bike47" type="bike_bicycle" depart="11.25" departLane="best" from="-24936506" to="24713969#2"/>
    <trip id="bike48" type="bike_bicycle" depart="11.49" departLane="best" from="939529076" to="25154405#7"/>
    <trip id="bike49" type="bike_bicycle" depart="11.73" departLane="best" from="897705154#1" to="-864769269"/>
    <trip id="bike50" type="bike_bicycle" depart="11.97" departLane="best" from="24690019" to="617638499#0"/>
    <trip id="bike51" type="bike_bicycle" depart="12.20" departLane="best" from="569114972#4" to="25154525#2"/>
    <trip id="bike52" type="bike_bicycle" depart="12.44" departLane="best" from="1163740455#0" to="456118098"/>
    <trip id="bike53" type="bike_bicycle" depart="12.68" departLane="best" from="319628524#1" to="24850172#6"/>
    <trip id="bike54" type="bike_bicycle" depart="12.92" departLane="best" from="24850282#4" to="-889520459#1"/>
    <trip id="bike55" type="bike_bicycle" depart="13.16" departLane="best" from="865384499" to="1180583827#3"/>
    <trip id="bike56" type="bike_bicycle" depart="13.40" departLane="best" from="24894105#0" to="-887767777"/>
    <trip id="bike57" type="bike_bicycle" depart="13.64" departLane="best" from="874527972#0" to="865486640"/>
    <trip id="bike59" type="bike_bicycle" depart="14.12" departLane="best" from="25165113#1" to="-875127887"/>
    <trip id="bike60" type="bike_bicycle" depart="14.36" departLane="best" from="618098748#6" to="25154547#1"/>
    <trip id="bike61" type="bike_bicycle" depart="14.60" departLane="best" from="-24942560#0" to="25154406#16"/>
    <trip id="bike63" type="bike_bicycle" depart="15.08" departLane="best" from="-1217151536" to="-885812869"/>
    <trip id="bike64" type="bike_bicycle" depart="15.32" departLane="best" from="618279258#13" to="847324972#17"/>
    <trip id="bike65" type="bike_bicycle" depart="15.55" departLane="best" from="1243745973" to="24936380#5"/>
    <trip id="bike66" type="bike_bicycle" depart="15.79" departLane="best" from="865430974#11" to="-887769593"/>
    <trip id="bike67" type="bike_bicycle" depart="16.03" departLane="best" from="25154861#1" to="24894036#14"/>
    <trip id="bike68" type="bike_bicycle" depart="16.27" departLane="best" from="-24974208#0" to="618279258#8"/>
    <trip id="bike69" type="bike_bicycle" depart="16.51" departLane="best" from="618098764#0" to="-654745872#2"/>
    <trip id="bike70" type="bike_bicycle" depart="16.75" departLane="best" from="24858503#1" to="25154695"/>
    <trip id="bike71" type="bike_bicycle" depart="16.99" departLane="best" from="1163486050#0" to="866404838"/>
    <trip id="bike73" type="bike_bicycle" depart="17.47" departLane="best" from="25154279#0" to="617638524#0"/>
    <trip id="bike74" type="bike_bicycle" depart="17.71" departLane="best" from="-890011142#0" to="1330717854#0"/>
    <trip id="bike75" type="bike_bicycle" depart="17.95" departLane="best" from="932642939#1" to="488191799#5"/>
    <trip id="bike76" type="bike_bicycle" depart="18.19" departLane="best" from="24846907#6" to="25154221#6"/>
    <trip id="bike77" type="bike_bicycle" depart="18.43" departLane="best" from="-569406313#0" to="1121599113#1"/>
    <trip id="bike78" type="bike_bicycle" depart="18.67" departLane="best" from="220844294#3" to="25164552"/>
    <trip id="bike80" type="bike_bicycle" depart="19.14" departLane="best" from="-25154518#2" to="865440684#0"/>
    <trip id="bike82" type="bike_bicycle" depart="19.62" departLane="best" from="855599853#3" to="-25154707#12"/>
    <trip id="bike83" type="bike_bicycle" depart="19.86" departLane="best" from="1120224705#1" to="569114972#4"/>
    <trip id="bike84" type="bike_bicycle" depart="20.10" departLane="best" from="-897984840#0" to="-682727235"/>
    <trip id="bike85" type="bike_bicycle" depart="20.34" departLane="best" from="885815458#3" to="25154844#0"/>
    <trip id="bike86" type="bike_bicycle" depart="20.58" departLane="best" from="24858440#2" to="654821107#11"/>
    <trip id="bike87" type="bike_bicycle" depart="20.82" departLane="best" from="679946205" to="-890084122"/>
    <trip id="bike88" type="bike_bicycle" depart="21.06" departLane="best" from="-25164436#1" to="24849974#5"/>
    <trip id="bike89" type="bike_bicycle" depart="21.30" departLane="best" from="24836050#2" to="24858874#4"/>
    <trip id="bike90" type="bike_bicycle" depart="21.54" departLane="best" from="617633716#12" to="569385792#1"/>
    <trip id="bike91" type="bike_bicycle" depart="21.78" departLane="best" from="908485615#1" to="-25164739#1"/>
    <trip id="bike92" type="bike_bicycle" depart="22.02" departLane="best" from="24734161#2" to="24684984#3"/>
    <trip id="bike93" type="bike_bicycle" depart="22.25" departLane="best" from="856092869" to="1163686351"/>
    <trip id="bike94" type="bike_bicycle" depart="22.49" departLane="best" from="-887496528" to="-24850793#1"/>
    <trip id="bike95" type="bike_bicycle" depart="22.73" departLane="best" from="24836017#0" to="1226655554#0"/>
    <trip id="bike96" type="bike_bicycle" depart="22.97" departLane="best" from="1135284429#0" to="885366898#1"/>
    <trip id="bike97" type="bike_bicycle" depart="23.21" departLane="best" from="24847758#1" to="865075029#0"/>
    <trip id="bike98" type="bike_bicycle" depart="23.45" departLane="best" from="25154525#2" to="-24858235#2"/>
    <trip id="bike99" type="bike_bicycle" depart="23.69" departLane="best" from="957492857#5" to="848082742#3"/>
    <trip id="bike100" type="bike_bicycle" depart="23.93" departLane="best" from="897028292#0" to="885423234#0"/>
    <trip id="bike103" type="bike_bicycle" depart="24.65" departLane="best" from="24734106#5" to="-24938334#0"/>
    <trip id="bike104" type="bike_bicycle" depart="24.89" departLane="best" from="24702765#0" to="910046991#3"/>
    <trip id="bike105" type="bike_bicycle" depart="25.13" departLane="best" from="1163486050#1" to="654817814#9"/>
    <trip id="bike106" type="bike_bicycle" depart="25.37" departLane="best" from="24850566#1" to="24836611"/>
    <trip id="bike107" type="bike_bicycle" depart="25.61" departLane="best" from="889443883" to="939529076"/>
    <trip id="bike108" type="bike_bicycle" depart="25.84" departLane="best" from="25154577#2" to="617633724#2"/>
    <trip id="bike109" type="bike_bicycle" depart="26.08" departLane="best" from="-866915525#1" to="1275810800#2"/>
    <trip id="bike110" type="bike_bicycle" depart="26.32" departLane="best" from="897028290#4" to="25154931#2"/>
    <trip id="bike111" type="bike_bicycle" depart="26.56" departLane="best" from="25154405#7" to="618098747#12"/>
    <trip id="bike112" type="bike_bicycle" depart="26.80" departLane="best" from="-24866612#1" to="25155018#7"/>
    <trip id="bike113" type="bike_bicycle" depart="27.04" departLane="best" from="24895408#17" to="859464831#0"/>
    <trip id="bike114" type="bike_bicycle" depart="27.28" departLane="best" departSpeed="max" from="-874502325" to="896893287"/>
    <trip id="bike115" type="bike_bicycle" depart="27.52" departLane="best" from="25154749#3" to="-889520473"/>
    <trip id="bike116" type="bike_bicycle" depart="27.76" departLane="best" from="25154932#3" to="569385815#1"/>
    <trip id="bike117" type="bike_bicycle" depart="28.00" departLane="best" from="1097834976#1" to="-618043848#4"/>
    <trip id="bike118" type="bike_bicycle" depart="28.24" departLane="best" from="866710415" to="1162919372"/>
    <trip id="bike119" type="bike_bicycle" depart="28.48" departLane="best" from="25154931#8" to="361358030#6"/>
    <trip id="bike120" type="bike_bicycle" depart="28.72" departLane="best" from="24738592#4" to="25155018#3"/>
    <trip id="bike121" type="bike_bicycle" depart="28.96" departLane="best" from="24940285#0" to="-886872710"/>
    <trip id="bike122" type="bike_bicycle" depart="29.19" departLane="best" departSpeed="max" from="-890073958#1" to="617633716#10"/>
    <trip id="bike123" type="bike_bicycle" depart="29.43" departLane="best" from="1120235110#0" to="24736305#0"/>
    <trip id="bike124" type="bike_bicycle" depart="29.67" departLane="best" from="569071000" to="128820820#1"/>
    <trip id="bike125" type="bike_bicycle" depart="29.91" departLane="best" from="1295586537" to="618098761#2"/>
    <trip id="bike126" type="bike_bicycle" depart="30.15" departLane="best" from="-25154634#0" to="24858344#0"/>
    <trip id="bike127" type="bike_bicycle" depart="30.39" departLane="best" departSpeed="max" from="945266240" to="941536803"/>
    <trip id="bike129" type="bike_bicycle" depart="30.87" departLane="best" from="1163486050#1" to="885881116#1"/>
    <trip id="bike130" type="bike_bicycle" depart="31.11" departLane="best" from="865440685#4" to="866712045#5"/>
    <trip id="bike131" type="bike_bicycle" depart="31.35" departLane="best" from="24696767#1" to="885023454"/>
    <trip id="bike132" type="bike_bicycle" depart="31.59" departLane="best" from="844355046#1" to="616927350#2"/>
    <trip id="bike133" type="bike_bicycle" depart="31.83" departLane="best" from="-25165208#0" to="918849901#0"/>
    <trip id="bike134" type="bike_bicycle" depart="32.07" departLane="best" from="456118094#6" to="-1118163641#2"/>
    <trip id="bike135" type="bike_bicycle" depart="32.31" departLane="best" from="688753796#3" to="128820819#1"/>
    <trip id="bike136" type="bike_bicycle" depart="32.54" departLane="best" from="488191800#2" to="887486814#1"/>
    <trip id="bike137" type="bike_bicycle" depart="32.78" departLane="best" from="-654827115#1" to="-517755846#0"/>
    <trip id="bike138" type="bike_bicycle" depart="33.02" departLane="best" from="-25165182#3" to="25154706#4"/>
    <trip id="bike139" type="bike_bicycle" depart="33.26" departLane="best" from="865394856#2" to="293937294#4"/>
    <trip id="bike140" type="bike_bicycle" depart="33.50" departLane="best" from="616927356#0" to="-932418130"/>
    <trip id="bike141" type="bike_bicycle" depart="33.74" departLane="best" from="361358030#6" to="1180583842"/>
    <trip id="bike143" type="bike_bicycle" depart="34.22" departLane="best" from="847782545#1" to="-25155028#0"/>
    <trip id="bike144" type="bike_bicycle" depart="34.46" departLane="best" from="24836050#2" to="1211394847"/>
    <trip id="bike146" type="bike_bicycle" depart="34.94" departLane="best" from="395297016#1" to="1180582741#0"/>
    <trip id="bike147" type="bike_bicycle" depart="35.18" departLane="best" from="617638518#10" to="25154704#0"/>
    <trip id="bike148" type="bike_bicycle" depart="35.42" departLane="best" from="24836146#3" to="1120485258"/>
    <trip id="bike149" type="bike_bicycle" depart="35.66" departLane="best" from="-25154707#14" to="866749361#0"/>
    <trip id="bike151" type="bike_bicycle" depart="36.13" departLane="best" from="845528493#0" to="25154977#7"/>
    <trip id="bike152" type="bike_bicycle" depart="36.37" departLane="best" from="-856116497#3" to="-625151765"/>
    <trip id="bike153" type="bike_bicycle" depart="36.61" departLane="best" departSpeed="max" from="1243955434#0" to="873335620#0"/>
    <trip id="bike154" type="bike_bicycle" depart="36.85" departLane="best" from="654817814#3" to="-864769269"/>
    <trip id="bike155" type="bike_bicycle" depart="37.09" departLane="best" from="866808128#1" to="1075177033#2"/>
    <trip id="bike156" type="bike_bicycle" depart="37.33" departLane="best" from="1135049104#0" to="25165140#3"/>
    <trip id="bike157" type="bike_bicycle" depart="37.57" departLane="best" from="618284679#8" to="-866756499#0"/>
    <trip id="bike158" type="bike_bicycle" depart="37.81" departLane="best" from="24734827#4" to="-377353373#4"/>
    <trip id="bike159" type="bike_bicycle" depart="38.05" departLane="best" from="-866915524#1" to="-885815457#1"/>
    <trip id="bike160" type="bike_bicycle" depart="38.29" departLane="best" from="859448271" to="-904179579#0"/>
    <trip id="bike161" type="bike_bicycle" depart="38.53" departLane="best" from="683249551#1" to="866741063#0"/>
    <trip id="bike162" type="bike_bicycle" depart="38.77" departLane="best" from="-1330717854#1" to="617887682#0"/>
    <trip id="bike163" type="bike_bicycle" depart="39.01" departLane="best" from="176444016#6" to="-885815465#1"/>
    <trip id="bike164" type="bike_bicycle" depart="39.25" departLane="best" from="654824836#1" to="865394856#3"/>
    <trip id="bike165" type="bike_bicycle" depart="39.48" departLane="best" from="25154258#1" to="1195939076#2"/>
    <trip id="bike166" type="bike_bicycle" depart="39.72" departLane="best" from="619286430#17" to="-312086247#2"/>
    <trip id="bike167" type="bike_bicycle" depart="39.96" departLane="best" from="864767017" to="864750200#2"/>
    <trip id="bike168" type="bike_bicycle" depart="40.20" departLane="best" from="-932616399#4" to="833370216#0"/>
    <trip id="bike169" type="bike_bicycle" depart="40.44" departLane="best" from="24850772#1" to="847784522#1"/>
    <trip id="bike171" type="bike_bicycle" depart="40.92" departLane="best" departSpeed="max" from="-1312082162" to="-896967675"/>
    <trip id="bike172" type="bike_bicycle" depart="41.16" departLane="best" from="1331636019#2" to="1174864066"/>
    <trip id="bike173" type="bike_bicycle" depart="41.40" departLane="best" from="896928965#1" to="1228989385#1"/>
    <trip id="bike174" type="bike_bicycle" depart="41.64" departLane="best" from="39543399#1" to="24736767#2"/>
    <trip id="bike175" type="bike_bicycle" depart="41.88" departLane="best" from="904259094" to="25154496"/>
    <trip id="bike176" type="bike_bicycle" depart="42.12" departLane="best" departSpeed="max" from="-886870881" to="-511864833#1"/>
    <trip id="bike177" type="bike_bicycle" depart="42.36" departLane="best" from="897399658" to="-887767776#1"/>
    <trip id="bike178" type="bike_bicycle" depart="42.60" departLane="best" from="618284679#25" to="1181059799#1"/>
    <trip id="bike179" type="bike_bicycle" depart="42.83" departLane="best" from="-25165868#0" to="24850172#5"/>
    <trip id="bike180" type="bike_bicycle" depart="43.07" departLane="best" from="617633716#0" to="-1331636018"/>
    <trip id="bike181" type="bike_bicycle" depart="43.31" departLane="best" departSpeed="max" from="25164909#0" to="24940343#2"/>
    <trip id="bike182" type="bike_bicycle" depart="43.55" departLane="best" from="25154258#8" to="25154903#3"/>
    <trip id="bike183" type="bike_bicycle" depart="43.79" departLane="best" from="1147748871#2" to="616934815#4"/>
    <trip id="bike185" type="bike_bicycle" depart="44.27" departLane="best" from="25154270#1" to="617638495#12"/>
    <trip id="bike186" type="bike_bicycle" depart="44.51" departLane="best" from="617638518#6" to="569384314#0"/>
    <trip id="bike187" type="bike_bicycle" depart="44.75" departLane="best" from="24690628#1" to="-25154706#6"/>
    <trip id="bike189" type="bike_bicycle" depart="45.23" departLane="best" from="128595139#2" to="856087851"/>
    <trip id="bike190" type="bike_bicycle" depart="45.47" departLane="best" from="616934804" to="128820825"/>
    <trip id="bike191" type="bike_bicycle" depart="45.71" departLane="best" from="124506586#0" to="24836017#1"/>
    <trip id="bike192" type="bike_bicycle" depart="45.95" departLane="best" from="24734161#1" to="1261299826#0"/>
    <trip id="bike193" type="bike_bicycle" depart="46.19" departLane="best" from="24939647#1" to="24836323#2"/>
    <trip id="bike194" type="bike_bicycle" depart="46.42" departLane="best" from="886872714#0" to="569404306#5"/>
    <trip id="bike195" type="bike_bicycle" depart="46.66" departLane="best" from="867017410#2" to="569390362#0"/>
    <trip id="bike196" type="bike_bicycle" depart="46.90" departLane="best" from="124049467#1" to="25154660#0"/>
    <trip id="bike198" type="bike_bicycle" depart="47.38" departLane="best" from="24836244#1" to="25154932#0"/>
    <trip id="bike199" type="bike_bicycle" depart="47.62" departLane="best" from="456118098" to="24858698#3"/>
    <trip id="bike201" type="bike_bicycle" depart="48.10" departLane="best" from="24858443#3" to="875127886"/>
    <trip id="bike202" type="bike_bicycle" depart="48.34" departLane="best" from="654817814#2" to="-885881117"/>
    <trip id="bike203" type="bike_bicycle" depart="48.58" departLane="best" departSpeed="max" from="-25154844#3" to="24942560#1"/>
    <trip id="bike204" type="bike_bicycle" depart="48.82" departLane="best" from="359438448#5" to="24684750#5"/>
    <trip id="bike205" type="bike_bicycle" depart="49.06" departLane="best" from="688967694#0" to="618098760#2"/>
    <trip id="bike206" type="bike_bicycle" depart="49.30" departLane="best" from="569071037" to="1121599113#1"/>
    <trip id="bike207" type="bike_bicycle" depart="49.54" departLane="best" from="889520459#1" to="-222239502#3"/>
    <trip id="bike208" type="bike_bicycle" depart="49.77" departLane="best" from="1122164354#0" to="24866607#0"/>
    <trip id="bike209" type="bike_bicycle" depart="50.01" departLane="best" from="849885546#0" to="25154734#2"/>
    <trip id="bike211" type="bike_bicycle" depart="50.49" departLane="best" from="-887804707" to="616812016#5"/>
    <trip id="bike212" type="bike_bicycle" depart="50.73" departLane="best" from="-24866875#1" to="1161797064#1"/>
    <trip id="bike214" type="bike_bicycle" depart="51.21" departLane="best" from="617887688#2" to="618284685#9"/>
    <trip id="bike216" type="bike_bicycle" depart="51.69" departLane="best" from="-885366898#1" to="890035211"/>
    <trip id="bike217" type="bike_bicycle" depart="51.93" departLane="best" from="24938330#0" to="-24858202#1"/>
    <trip id="bike218" type="bike_bicycle" depart="52.17" departLane="best" from="1135049100#1" to="856087852#1"/>
    <trip id="bike219" type="bike_bicycle" depart="52.41" departLane="best" from="24850682#6" to="685755040#0"/>
    <trip id="bike220" type="bike_bicycle" depart="52.65" departLane="best" from="517139709#0" to="919257630#0"/>
    <trip id="bike221" type="bike_bicycle" depart="52.89" departLane="best" from="-25154932#6" to="887862036"/>
    <trip id="bike222" type="bike_bicycle" depart="53.12" departLane="best" from="866712045#3" to="-332450395#1"/>
    <trip id="bike223" type="bike_bicycle" depart="53.36" departLane="best" from="616927361#0" to="24936942#6"/>
    <trip id="bike224" type="bike_bicycle" depart="53.60" departLane="best" from="833677548#1" to="25154642#2"/>
    <trip id="bike225" type="bike_bicycle" depart="53.84" departLane="best" from="866798214#1" to="618043858#1"/>
    <trip id="bike227" type="bike_bicycle" depart="54.32" departLane="best" from="1122219550" to="456118078"/>
    <trip id="bike228" type="bike_bicycle" depart="54.56" departLane="best" from="618098764#0" to="25154260#2"/>
    <trip id="bike229" type="bike_bicycle" depart="54.80" departLane="best" from="331327977#0" to="1207048673"/>
    <trip id="bike230" type="bike_bicycle" depart="55.04" departLane="best" from="-25154737#1" to="124049468#3"/>
    <trip id="bike231" type="bike_bicycle" depart="55.28" departLane="best" from="1174906992#2" to="187679421#5"/>
    <trip id="bike232" type="bike_bicycle" depart="55.52" departLane="best" from="25154279#7" to="846008894#3"/>
    <trip id="bike234" type="bike_bicycle" depart="56.00" departLane="best" from="616812002#4" to="-24942576"/>
    <trip id="bike235" type="bike_bicycle" depart="56.24" departLane="best" from="24734959#0" to="25154577#7"/>
    <trip id="bike238" type="bike_bicycle" depart="56.95" departLane="best" from="25154834" to="616812013#0"/>
    <trip id="bike239" type="bike_bicycle" depart="57.19" departLane="best" from="854269187#0" to="618284679#27"/>
    <trip id="bike241" type="bike_bicycle" depart="57.67" departLane="best" from="24684917#5" to="618098765#0"/>
    <trip id="bike242" type="bike_bicycle" depart="57.91" departLane="best" from="854044801#4" to="889520458#0"/>
    <trip id="bike243" type="bike_bicycle" depart="58.15" departLane="best" from="24738592#2" to="618098742#1"/>
    <trip id="bike244" type="bike_bicycle" depart="58.39" departLane="best" from="25154435#1" to="25302976#4"/>
    <trip id="bike245" type="bike_bicycle" depart="58.63" departLane="best" departSpeed="max" from="-929664768" to="1120220340#1"/>
    <trip id="bike246" type="bike_bicycle" depart="58.87" departLane="best" from="438721545#2" to="24700910#0"/>
    <trip id="bike247" type="bike_bicycle" depart="59.11" departLane="best" from="217581829#3" to="569404595#1"/>
    <trip id="bike248" type="bike_bicycle" depart="59.35" departLane="best" from="24734472#1" to="885415156#1"/>
    <trip id="bike249" type="bike_bicycle" depart="59.59" departLane="best" from="24858131#2" to="-654603191"/>
    <trip id="bike250" type="bike_bicycle" depart="59.83" departLane="best" from="312086255#2" to="24690455#9"/>
    <trip id="bike251" type="bike_bicycle" depart="60.06" departLane="best" from="1097834976#2" to="25154781#0"/>
    <trip id="bike252" type="bike_bicycle" depart="60.30" departLane="best" from="1337069334#0" to="4754724#1"/>
    <trip id="bike253" type="bike_bicycle" depart="60.54" departLane="best" departSpeed="max" from="-656096034" to="24858500#9"/>
    <trip id="bike254" type="bike_bicycle" depart="60.78" departLane="best" from="-24850201#2" to="24713410#0"/>
    <trip id="bike255" type="bike_bicycle" depart="61.02" departLane="best" from="-897397574#1" to="222233483#4"/>
    <trip id="bike256" type="bike_bicycle" depart="61.26" departLane="best" from="618098747#7" to="24713410#0"/>
    <trip id="bike257" type="bike_bicycle" depart="61.50" departLane="best" from="618028621#1" to="847324972#19"/>
    <trip id="bike259" type="bike_bicycle" depart="61.98" departLane="best" from="-1217151535#2" to="25154547#1"/>
    <trip id="bike261" type="bike_bicycle" depart="62.46" departLane="best" from="438721545#7" to="654539062"/>
    <trip id="bike262" type="bike_bicycle" depart="62.70" departLane="best" from="456118074#1" to="618098769#4"/>
    <trip id="bike263" type="bike_bicycle" depart="62.94" departLane="best" from="887767767#0" to="904180975#0"/>
    <trip id="bike264" type="bike_bicycle" depart="63.18" departLane="best" from="-1227658816#1" to="-875099075"/>
    <trip id="bike265" type="bike_bicycle" depart="63.41" departLane="best" from="618098760#1" to="569384302#0"/>
    <trip id="bike266" type="bike_bicycle" depart="63.65" departLane="best" from="-25154697" to="1111860912"/>
    <trip id="bike267" type="bike_bicycle" depart="63.89" departLane="best" from="609012737#2" to="618284679#4"/>
    <trip id="bike268" type="bike_bicycle" depart="64.13" departLane="best" from="-885023456#0" to="312086253"/>
    <trip id="bike269" type="bike_bicycle" depart="64.37" departLane="best" from="617831539#1" to="-4780792#3"/>
    <trip id="bike270" type="bike_bicycle" depart="64.61" departLane="best" from="70650610#2" to="-897028290#1"/>
    <trip id="bike271" type="bike_bicycle" depart="64.85" departLane="best" from="-25165212#1" to="24685569#4"/>
    <trip id="bike272" type="bike_bicycle" depart="65.09" departLane="best" from="1264559251#2" to="569404306#5"/>
    <trip id="bike274" type="bike_bicycle" depart="65.57" departLane="best" from="616923745#0" to="-25154749#2"/>
    <trip id="bike275" type="bike_bicycle" depart="65.81" departLane="best" from="865474674#0" to="396109696#1"/>
    <trip id="bike276" type="bike_bicycle" depart="66.05" departLane="best" from="-25164739#2" to="619286425#2"/>