<?xml version="1.0" encoding="UTF-8"?>

<!-- generated on 2024-12-01 20:31:59.908850 by osmWebWizard.py v1_21_0+1083-291fe701fec
<configuration>
    <net-file value="C:\Users\ST\2024-12-01-20-30-08\osm.net.xml.gz"/>
    <output-trip-file value="C:\Users\ST\2024-12-01-20-30-08\osm.bus.trips.xml"/>
    <route-file value="C:\Users\ST\2024-12-01-20-30-08\osm.bus.rou.xml"/>
    <prefix value="bus"/>
    <trip-attributes value="departLane=&quot;best&quot;"/>
    <fringe-start-attributes value="departSpeed=&quot;max&quot;"/>
    <vehicle-class value="bus"/>
    <fringe-factor value="1.01"/>
    <vclass value="bus"/>
    <via-edge-types value="highway.motorway,highway.motorway_link,highway.trunk_link,highway.primary_link,highway.secondary_link,highway.tertiary_link"/>
    <min-distance value="600.0"/>
    <min-distance.fringe value="10.0"/>
    <remove-loops value="True"/>
    <validate value="True"/>
    <insertion-density value="14.0"/>
</configuration>
-->

<!-- generated on 2024-12-01 20:31:46 by Eclipse SUMO duarouter Version v1_21_0+1083-291fe701fec
<duarouterConfiguration xmlns:xsi="http://www.w3.org/2001/XMLSchema-instance" xsi:noNamespaceSchemaLocation="http://sumo.dlr.de/xsd/duarouterConfiguration.xsd">

    <input>
        <net-file value="C:\Users\ST\2024-12-01-20-30-08\osm.net.xml.gz"/>
        <route-files value="C:\Users\ST\2024-12-01-20-30-08\osm.bus.trips.xml"/>
    </input>

    <output>
        <output-file value="C:\Users\ST\2024-12-01-20-30-08\osm.bus.trips.xml.tmp"/>
        <alternatives-output value="NUL"/>
        <write-trips value="true"/>
    </output>

    <processing>
        <remove-loops value="true"/>
    </processing>

    <time>
        <begin value="0.0"/>
        <end value="3600.0"/>
    </time>

    <report>
        <no-warnings value="true"/>
        <ignore-errors value="true"/>
        <no-step-log value="true"/>
    </report>

</duarouterConfiguration>
-->

<routes xmlns:xsi="http://www.w3.org/2001/XMLSchema-instance" xsi:noNamespaceSchemaLocation="http://sumo.dlr.de/xsd/routes_file.xsd">
    <vType id="bus_bus" vClass="bus"/>
    <trip id="bus0" type="bus_bus" depart="0.00" departLane="best" from="395300718#1" to="24738926"/>
    <trip id="bus1" type="bus_bus" depart="0.28" departLane="best" from="222244155#3" to="124161951#1"/>
    <trip id="bus2" type="bus_bus" depart="0.57" departLane="best" from="847324973#0" to="-25164733#1"/>
    <trip id="bus3" type="bus_bus" depart="0.85" departLane="best" from="1217151536" to="24942567"/>
    <trip id="bus4" type="bus_bus" depart="1.14" departLane="best" from="-24847220#1" to="1180581888#3"/>
    <trip id="bus5" type="bus_bus" depart="1.42" departLane="best" from="432043007" to="25154642#1"/>
    <trip id="bus6" type="bus_bus" depart="1.71" departLane="best" from="1233008419#0" to="-25155028#1"/>
    <trip id="bus7" type="bus_bus" depart="1.99" departLane="best" from="618284679#21" to="-24685569#1"/>
    <trip id="bus8" type="bus_bus" depart="2.28" departLane="best" from="618279283#4" to="569390360#3"/>
    <trip id="bus9" type="bus_bus" depart="2.56" departLane="best" from="24713969#0" to="1120485251#0"/>
    <trip id="bus10" type="bus_bus" depart="2.85" departLane="best" from="866813093#3" to="24713409#3"/>
    <trip id="bus11" type="bus_bus" depart="3.13" departLane="best" from="679946205" to="25165182#0"/>
    <trip id="bus12" type="bus_bus" depart="3.42" departLane="best" from="618284672#5" to="616921713#7"/>
    <trip id="bus13" type="bus_bus" depart="3.70" departLane="best" from="25154567" to="897705154#2"/>
    <trip id="bus14" type="bus_bus" depart="3.99" departLane="best" from="24836106#0" to="25154706#7"/>
    <trip id="bus15" type="bus_bus" depart="4.27" departLane="best" from="617633716#0" to="324151213#3"/>
    <trip id="bus16" type="bus_bus" depart="4.56" departLane="best" from="688967694#4" to="25154873#0"/>
    <trip id="bus17" type="bus_bus" depart="4.84" departLane="best" from="569404624#1" to="-24942553#1"/>
    <trip id="bus18" type="bus_bus" depart="5.12" departLane="best" from="1243626663#0" to="24685466#3"/>
    <trip id="bus19" type="bus_bus" depart="5.41" departLane="best" from="-25155028#0" to="1264559251#1"/>
    <trip id="bus20" type="bus_bus" depart="5.69" departLane="best" from="-332450399#1" to="226529202#8"/>
    <trip id="bus21" type="bus_bus" depart="5.98" departLane="best" from="395300657#0" to="24736836#1"/>
    <trip id="bus22" type="bus_bus" depart="6.26" departLane="best" from="24738592#6" to="1198095261#0"/>
    <trip id="bus23" type="bus_bus" depart="6.55" departLane="best" from="220844294#2" to="866398742#0"/>
    <trip id="bus24" type="bus_bus" depart="6.83" departLane="best" from="421567712#7" to="25206950#1"/>
    <trip id="bus25" type="bus_bus" depart="7.12" departLane="best" from="1138585950#0" to="616921713#16"/>
    <trip id="bus26" type="bus_bus" depart="7.40" departLane="best" from="1122164366" to="24836110#1"/>
    <trip id="bus27" type="bus_bus" depart="7.69" departLane="best" from="908485637#2" to="396109696#0"/>
    <trip id="bus28" type="bus_bus" depart="7.97" departLane="best" from="25154734#1" to="569114954#5"/>
    <trip id="bus29" type="bus_bus" depart="8.26" departLane="best" departSpeed="max" from="654836802" to="617887682#0"/>
    <trip id="bus30" type="bus_bus" depart="8.54" departLane="best" from="1243635719" to="24850929#1"/>
    <trip id="bus31" type="bus_bus" depart="8.83" departLane="best" from="24700895#4" to="222223639#3"/>
    <trip id="bus32" type="bus_bus" depart="9.11" departLane="best" from="1198095260#1" to="866466952"/>
    <trip id="bus33" type="bus_bus" depart="9.39" departLane="best" from="844009538#4" to="24700895#4"/>
    <trip id="bus34" type="bus_bus" depart="9.68" departLane="best" from="456118094#3" to="24847109"/>
    <trip id="bus35" type="bus_bus" depart="9.96" departLane="best" from="859464831#0" to="24866752#3"/>
    <trip id="bus36" type="bus_bus" depart="10.25" departLane="best" from="25154741#5" to="217581829#1"/>
    <trip id="bus37" type="bus_bus" depart="10.53" departLane="best" from="25154931#8" to="849885545"/>
    <trip id="bus38" type="bus_bus" depart="10.82" departLane="best" from="-24847645#2" to="1237116198#0"/>
    <trip id="bus39" type="bus_bus" depart="11.10" departLane="best" from="941848014#0" to="25154258#3"/>
    <trip id="bus40" type="bus_bus" depart="11.39" departLane="best" from="-25165009#5" to="-24974208#1"/>
    <trip id="bus41" type="bus_bus" depart="11.67" departLane="best" from="-617718965#10" to="352682600#3"/>
    <trip id="bus42" type="bus_bus" depart="11.96" departLane="best" from="618098756#1" to="24850772#7"/>
    <trip id="bus43" type="bus_bus" depart="12.24" departLane="best" from="-25154788#0" to="24836172#2"/>
    <trip id="bus44" type="bus_bus" depart="12.53" departLane="best" from="932642940" to="25154449#2"/>
    <trip id="bus45" type="bus_bus" depart="12.81" departLane="best" from="889116248" to="688764080#2"/>
    <trip id="bus46" type="bus_bus" depart="13.10" departLane="best" from="24703062#1" to="616812010#11"/>
    <trip id="bus47" type="bus_bus" depart="13.38" departLane="best" from="569114951#2" to="25154573#1"/>
    <trip id="bus48" type="bus_bus" depart="13.67" departLane="best" from="220844294#1" to="396109701"/>
    <trip id="bus49" type="bus_bus" depart="13.95" departLane="best" from="-618053641" to="24858321#3"/>
    <trip id="bus50" type="bus_bus" depart="14.23" departLane="best" from="24859099#4" to="866799793#1"/>
    <trip id="bus51" type="bus_bus" depart="14.52" departLane="best" from="616583452#4" to="219725263"/>
    <trip id="bus52" type="bus_bus" depart="14.80" departLane="best" from="-24940432#2" to="1160540429#2"/>
    <trip id="bus53" type="bus_bus" depart="15.09" departLane="best" from="857268075#1" to="830352826#1"/>
    <trip id="bus54" type="bus_bus" depart="15.37" departLane="best" from="24684984#12" to="39543396#1"/>
    <trip id="bus55" type="bus_bus" depart="15.66" departLane="best" from="25205213#1" to="1120235112"/>
    <trip id="bus56" type="bus_bus" depart="15.94" departLane="best" from="617638518#4" to="25154581#1"/>
    <trip id="bus57" type="bus_bus" depart="16.23" departLane="best" from="618028623#10" to="25154495#4"/>
    <trip id="bus58" type="bus_bus" depart="16.51" departLane="best" departSpeed="max" from="-1122083796" to="24703903#6"/>
    <trip id="bus59" type="bus_bus" depart="16.80" departLane="best" from="-24734818#4" to="865399020#1"/>
    <trip id="bus60" type="bus_bus" depart="17.08" departLane="best" from="845518113#2" to="654745864"/>
    <trip id="bus61" type="bus_bus" depart="17.37" departLane="best" from="24690831#0" to="-25154738#1"/>
    <trip id="bus62" type="bus_bus" depart="17.65" departLane="best" from="844355046#0" to="866720672#1"/>
    <trip id="bus63" type="bus_bus" depart="17.94" departLane="best" from="-25164658#3" to="24936503#1"/>
    <trip id="bus64" type="bus_bus" depart="18.22" departLane="best" from="-25154873#5" to="617638517#19"/>
    <trip id="bus65" type="bus_bus" depart="18.51" departLane="best" from="617718968" to="833679596#2"/>
    <trip id="bus66" type="bus_bus" depart="18.79" departLane="best" from="24895969#1" to="25154704#0"/>
    <trip id="bus67" type="bus_bus" depart="19.07" departLane="best" from="219726398" to="831172010#1"/>
    <trip id="bus68" type="bus_bus" depart="19.36" departLane="best" from="24850793#0" to="1203373148#1"/>
    <trip id="bus69" type="bus_bus" depart="19.64" departLane="best" from="25154578#0" to="616921713#8"/>
    <trip id="bus70" type="bus_bus" depart="19.93" departLane="best" from="1180581888#4" to="24697149#0"/>
    <trip id="bus71" type="bus_bus" depart="20.21" departLane="best" from="932616399#2" to="438721545#4"/>
    <trip id="bus72" type="bus_bus" depart="20.50" departLane="best" from="24858453#1" to="25154277#0"/>
    <trip id="bus73" type="bus_bus" depart="20.78" departLane="best" from="-654821516#0" to="1243625022#0"/>
    <trip id="bus74" type="bus_bus" depart="21.07" departLane="best" from="24713775#2" to="25155018#3"/>
    <trip id="bus75" type="bus_bus" depart="21.35" departLane="best" from="1243740734#0" to="123885361#5"/>
    <trip id="bus76" type="bus_bus" depart="21.64" departLane="best" from="-25154903#2" to="369763363#0"/>
    <trip id="bus77" type="bus_bus" depart="21.92" departLane="best" from="1243632893#1" to="854269187#2"/>
    <trip id="bus78" type="bus_bus" depart="22.21" departLane="best" from="688753797" to="-25154896#1"/>
    <trip id="bus79" type="bus_bus" depart="22.49" departLane="best" from="1120235112" to="488741834#5"/>
    <trip id="bus80" type="bus_bus" depart="22.78" departLane="best" from="1203373149" to="-855584156#1"/>
    <trip id="bus81" type="bus_bus" depart="23.06" departLane="best" from="865486639#0" to="25154792#1"/>
    <trip id="bus82" type="bus_bus" depart="23.35" departLane="best" from="24895408#0" to="618043858#3"/>
    <trip id="bus83" type="bus_bus" depart="23.63" departLane="best" from="618284672#7" to="1174905322#1"/>
    <trip id="bus85" type="bus_bus" depart="24.20" departLane="best" from="24850811#1" to="24873029#1"/>
    <trip id="bus86" type="bus_bus" depart="24.48" departLane="best" from="616921714" to="517139709#6"/>
    <trip id="bus87" type="bus_bus" depart="24.77" departLane="best" from="904261096#1" to="-25206950#1"/>
    <trip id="bus88" type="bus_bus" depart="25.05" departLane="best" from="24850107#1" to="24713947#1"/>
    <trip id="bus89" type="bus_bus" depart="25.34" departLane="best" from="688967694#4" to="1311376499#2"/>
    <trip id="bus90" type="bus_bus" depart="25.62" departLane="best" from="1174863551#1" to="24859071#2"/>
    <trip id="bus91" type="bus_bus" depart="25.91" departLane="best" from="24850772#5" to="235361237#2"/>
    <trip id="bus92" type="bus_bus" depart="26.19" departLane="best" from="1311376490#9" to="569385822"/>
    <trip id="bus93" type="bus_bus" depart="26.48" departLane="best" from="24858667" to="688764080#6"/>
    <trip id="bus94" type="bus_bus" depart="26.76" departLane="best" from="976442408" to="654821107#5"/>
    <trip id="bus95" type="bus_bus" depart="27.05" departLane="best" departSpeed="max" from="885052498" to="865149236"/>
    <trip id="bus96" type="bus_bus" depart="27.33" departLane="best" from="24936503#3" to="120510335#4"/>
    <trip id="bus97" type="bus_bus" depart="27.62" departLane="best" from="24849974#2" to="-25154738#5"/>
    <trip id="bus98" type="bus_bus" depart="27.90" departLane="best" from="24836106#2" to="904268994#0"/>
    <trip id="bus99" type="bus_bus" depart="28.18" departLane="best" from="219726400#0" to="618043857"/>
    <trip id="bus100" type="bus_bus" depart="28.47" departLane="best" from="24859110#0" to="24850778#2"/>
    <trip id="bus101" type="bus_bus" depart="28.75" departLane="best" from="866813093#3" to="-932616399#4"/>
    <trip id="bus102" type="bus_bus" depart="29.04" departLane="best" from="25154728#0" to="616807404#0"/>
    <trip id="bus103" type="bus_bus" depart="29.32" departLane="best" from="867034395" to="24690047#0"/>
    <trip id="bus104" type="bus_bus" depart="29.61" departLane="best" departSpeed="max" from="876643258" to="25154894#1"/>
    <trip id="bus105" type="bus_bus" depart="29.89" departLane="best" from="25154589#5" to="617633716#12"/>
    <trip id="bus106" type="bus_bus" depart="30.18" departLane="best" from="-25154734#1" to="25154932#11"/>
    <trip id="bus107" type="bus_bus" depart="30.46" departLane="best" from="24940966#2" to="683249552#0"/>
    <trip id="bus108" type="bus_bus" depart="30.75" departLane="best" from="1120485251#0" to="867030711#1"/>
    <trip id="bus109" type="bus_bus" depart="31.03" departLane="best" from="-25164395#1" to="1163985760"/>
    <trip id="bus110" type="bus_bus" depart="31.32" departLane="best" from="25164552" to="532386051#2"/>
    <trip id="bus111" type="bus_bus" depart="31.60" departLane="best" from="1275810800#1" to="-654821516#0"/>
    <trip id="bus112" type="bus_bus" depart="31.89" departLane="best" from="847324972#16" to="130848192#8"/>
    <trip id="bus113" type="bus_bus" depart="32.17" departLane="best" from="25164513#4" to="324168406#2"/>
    <trip id="bus114" type="bus_bus" depart="32.46" departLane="best" from="24850729#0" to="25154931#8"/>
    <trip id="bus115" type="bus_bus" depart="32.74" departLane="best" from="25154406#16" to="865474674#1"/>
    <trip id="bus116" type="bus_bus" depart="33.02" departLane="best" from="1180583827#2" to="616593866#3"/>
    <trip id="bus117" type="bus_bus" depart="33.31" departLane="best" from="128820820#0" to="24847120"/>
    <trip id="bus118" type="bus_bus" depart="33.59" departLane="best" from="517139709#2" to="24690455#7"/>
    <trip id="bus119" type="bus_bus" depart="33.88" departLane="best" from="24700910#3" to="617638495#2"/>
    <trip id="bus120" type="bus_bus" depart="34.16" departLane="best" from="-25154907#6" to="24866757#1"/>
    <trip id="bus121" type="bus_bus" depart="34.45" departLane="best" from="957492857#1" to="-932642940"/>
    <trip id="bus122" type="bus_bus" depart="34.73" departLane="best" from="-25154931#1" to="1203822949#1"/>
    <trip id="bus123" type="bus_bus" depart="35.02" departLane="best" from="219726400#0" to="865440685#2"/>
    <trip id="bus124" type="bus_bus" depart="35.30" departLane="best" from="845528493#2" to="845518112#1"/>
    <trip id="bus125" type="bus_bus" depart="35.59" departLane="best" from="24738592#10" to="1121599113#1"/>
    <trip id="bus126" type="bus_bus" depart="35.87" departLane="best" departSpeed="max" from="654819226" to="569404605#1"/>
    <trip id="bus127" type="bus_bus" depart="36.16" departLane="best" from="25206952#2" to="906628774"/>
    <trip id="bus128" type="bus_bus" depart="36.44" departLane="best" from="456118079#2" to="24690455#3"/>
    <trip id="bus130" type="bus_bus" depart="37.01" departLane="best" from="4818259#2" to="866404840#0"/>
    <trip id="bus131" type="bus_bus" depart="37.30" departLane="best" from="856511786#0" to="-619286430#12"/>
    <trip id="bus132" type="bus_bus" depart="37.58" departLane="best" departSpeed="max" from="-511864833#2" to="25154707#14"/>
    <trip id="bus133" type="bus_bus" depart="37.86" departLane="best" from="616807404#1" to="1180583843#4"/>
    <trip id="bus134" type="bus_bus" depart="38.15" departLane="best" from="387049360#2" to="219726400#2"/>
    <trip id="bus135" type="bus_bus" depart="38.43" departLane="best" from="24936695#14" to="854269187#2"/>
    <trip id="bus136" type="bus_bus" depart="38.72" departLane="best" from="664037885#0" to="-25165113#3"/>
    <trip id="bus137" type="bus_bus" depart="39.00" departLane="best" from="24850811#1" to="226529202#16"/>
    <trip id="bus138" type="bus_bus" depart="39.29" departLane="best" from="1264559250" to="617719001#1"/>
    <trip id="bus139" type="bus_bus" depart="39.57" departLane="best" from="395300674#1" to="25154621#1"/>
    <trip id="bus140" type="bus_bus" depart="39.86" departLane="best" from="617525562#2" to="25154706#4"/>
    <trip id="bus141" type="bus_bus" depart="40.14" departLane="best" from="24850922#1" to="-24701271#3"/>
    <trip id="bus142" type="bus_bus" depart="40.43" departLane="best" from="-25154932#3" to="845528493#5"/>
    <trip id="bus143" type="bus_bus" depart="40.71" departLane="best" from="-1135303298" to="25154660#2"/>
    <trip id="bus144" type="bus_bus" depart="41.00" departLane="best" from="1026269657#3" to="833662233"/>
    <trip id="bus145" type="bus_bus" depart="41.28" departLane="best" from="617633716#10" to="851590631#0"/>
    <trip id="bus146" type="bus_bus" depart="41.57" departLane="best" from="618098769#1" to="688764080#1"/>
    <trip id="bus147" type="bus_bus" depart="41.85" departLane="best" from="851590636" to="1198111542#1"/>
    <trip id="bus148" type="bus_bus" depart="42.14" departLane="best" from="1311376490#7" to="412568715"/>
    <trip id="bus149" type="bus_bus" depart="42.42" departLane="best" from="618028624#1" to="845797659#1"/>
    <trip id="bus150" type="bus_bus" depart="42.70" departLane="best" from="24850200#1" to="325152995#1"/>
    <trip id="bus151" type="bus_bus" depart="42.99" departLane="best" from="1120235110#2" to="865430974#10"/>
    <trip id="bus152" type="bus_bus" depart="43.27" departLane="best" from="744543867#4" to="903950051"/>
    <trip id="bus153" type="bus_bus" depart="43.56" departLane="best" from="618284679#30" to="845528493#16"/>
    <trip id="bus154" type="bus_bus" depart="43.84" departLane="best" from="-24738692#1" to="616934809#1"/>
    <trip id="bus155" type="bus_bus" depart="44.13" departLane="best" from="24704315#2" to="865430974#7"/>
    <trip id="bus156" type="bus_bus" depart="44.41" departLane="best" from="618279258#1" to="743195085#1"/>
    <trip id="bus157" type="bus_bus" depart="44.70" departLane="best" from="618284679#30" to="222126358#1"/>
    <trip id="bus158" type="bus_bus" depart="44.98" departLane="best" from="618098741#1" to="-617718965#10"/>
    <trip id="bus159" type="bus_bus" depart="45.27" departLane="best" from="833370216#0" to="688753795#1"/>
    <trip id="bus160" type="bus_bus" depart="45.55" departLane="best" from="124048430#1" to="618284685#3"/>
    <trip id="bus161" type="bus_bus" depart="45.84" departLane="best" from="24866763#2" to="24690772#1"/>
    <trip id="bus162" type="bus_bus" depart="46.12" departLane="best" from="618098764#3" to="1243740731#2"/>
    <trip id="bus163" type="bus_bus" depart="46.41" departLane="best" from="-24736836#1" to="1174924632#3"/>
    <trip id="bus164" type="bus_bus" depart="46.69" departLane="best" from="24704056#17" to="743234927#0"/>
    <trip id="bus165" type="bus_bus" depart="46.97" departLane="best" from="867804561" to="24680468#3"/>
    <trip id="bus166" type="bus_bus" depart="47.26" departLane="best" from="396109696#2" to="24847758#1"/>
    <trip id="bus167" type="bus_bus" depart="47.54" departLane="best" from="904180976" to="25154568#1"/>
    <trip id="bus168" type="bus_bus" depart="47.83" departLane="best" from="866417744#1" to="-619286430#12"/>
    <trip id="bus169" type="bus_bus" depart="48.11" departLane="best" from="886969259#2" to="1160540429#2"/>
    <trip id="bus170" type="bus_bus" depart="48.40" departLane="best" from="867034643#1" to="220814781"/>
    <trip id="bus171" type="bus_bus" depart="48.68" departLane="best" from="-617633721#0" to="24858321#2"/>
    <trip id="bus172" type="bus_bus" depart="48.97" departLane="best" from="616921713#6" to="24700867#4"/>
    <trip id="bus173" type="bus_bus" depart="49.25" departLane="best" from="25165212#0" to="25154260#12"/>
    <trip id="bus174" type="bus_bus" depart="49.54" departLane="best" from="24836282#9" to="25154868#3"/>
    <trip id="bus175" type="bus_bus" depart="49.82" departLane="best" from="1324181465#0" to="569406315#2"/>
    <trip id="bus176" type="bus_bus" depart="50.11" departLane="best" from="-1168774908" to="865134502"/>
    <trip id="bus177" type="bus_bus" depart="50.39" departLane="best" from="25154577#4" to="616812002#4"/>
    <trip id="bus178" type="bus_bus" depart="50.68" departLane="best" from="617525570#3" to="511864835"/>
    <trip id="bus179" type="bus_bus" depart="50.96" departLane="best" from="24736783#3" to="-25154887#1"/>
    <trip id="bus180" type="bus_bus" depart="51.25" departLane="best" from="24859098#4" to="24704187"/>
    <trip id="bus181" type="bus_bus" depart="51.53" departLane="best" from="24700867#1" to="-682504898"/>
    <trip id="bus182" type="bus_bus" depart="51.81" departLane="best" from="616812010#11" to="24690468#0"/>
    <trip id="bus183" type="bus_bus" depart="52.10" departLane="best" from="24696767#6" to="24850243#2"/>
    <trip id="bus184" type="bus_bus" depart="52.38" departLane="best" from="24850107#0" to="24690022#1"/>
    <trip id="bus185" type="bus_bus" depart="52.67" departLane="best" from="866439043#1" to="569071020"/>
    <trip id="bus186" type="bus_bus" depart="52.95" departLane="best" from="854226361" to="302116347#1"/>
    <trip id="bus187" type="bus_bus" depart="53.24" departLane="best" from="-24690455#7" to="25154696#2"/>
    <trip id="bus188" type="bus_bus" depart="53.52" departLane="best" from="-1114968649" to="24684984#11"/>
    <trip id="bus189" type="bus_bus" depart="53.81" departLane="best" from="24858131#2" to="25154903#2"/>
    <trip id="bus190" type="bus_bus" depart="54.09" departLane="best" from="456118082#2" to="24872673"/>
    <trip id="bus191" type="bus_bus" depart="54.38" departLane="best" from="24858644#1" to="120510335#4"/>
    <trip id="bus192" type="bus_bus" depart="54.66" departLane="best" from="24895408#11" to="854044801#7"/>
    <trip id="bus193" type="bus_bus" depart="54.95" departLane="best" from="618098769#0" to="1138585950#0"/>
    <trip id="bus194" type="bus_bus" depart="55.23" departLane="best" from="-25164590" to="25154266#1"/>
    <trip id="bus195" type="bus_bus" depart="55.52" departLane="best" from="377353373#3" to="24713397#0"/>
    <trip id="bus196" type="bus_bus" depart="55.80" departLane="best" from="618366930#4" to="617638495#1"/>
    <trip id="bus197" type="bus_bus" depart="56.09" departLane="best" from="-517755846#1" to="1243625022#0"/>
    <trip id="bus198" type="bus_bus" depart="56.37" departLane="best" from="1180581569#3" to="-24738692#0"/>
    <trip id="bus199" type="bus_bus" depart="56.65" departLane="best" from="130819481#3" to="24895408#4"/>
    <trip id="bus200" type="bus_bus" depart="56.94" departLane="best" from="683249545#1" to="-25154907#4"/>
    <trip id="bus201" type="bus_bus" depart="57.22" departLane="best" from="24850566#1" to="361358030#1"/>
    <trip id="bus202" type="bus_bus" depart="57.51" departLane="best" from="1174924632#0" to="569385806#1"/>
    <trip id="bus203" type="bus_bus" depart="57.79" departLane="best" from="-24939857#0" to="130848186#6"/>
    <trip id="bus204" type="bus_bus" depart="58.08" departLane="best" from="456118094#7" to="-217481079#0"/>
    <trip id="bus205" type="bus_bus" depart="58.36" departLane="best" from="617638495#5" to="617718984#3"/>
    <trip id="bus206" type="bus_bus" depart="58.65" departLane="best" departSpeed="max" from="-485966311#1" to="24850888#2"/>
    <trip id="bus207" type="bus_bus" depart="58.93" departLane="best" from="1150556477#5" to="867017410#2"/>
    <trip id="bus208" type="bus_bus" depart="59.22" departLane="best" from="1311376490#5" to="682761246#0"/>
    <trip id="bus209" type="bus_bus" depart="59.50" departLane="best" from="488191800#2" to="908485634#0"/>
    <trip id="bus210" type="bus_bus" depart="59.79" departLane="best" from="25164607" to="866747389#1"/>
    <trip id="bus211" type="bus_bus" depart="60.07" departLane="best" from="847324972#4" to="293937294#0"/>
    <trip id="bus212" type="bus_bus" depart="60.36" departLane="best" from="616812008" to="24942560#0"/>
    <trip id="bus213" type="bus_bus" depart="60.64" departLane="best" departSpeed="max" from="654745863" to="25154405#11"/>
    <trip id="bus214" type="bus_bus" depart="60.93" departLane="best" from="849885545" to="617628983#0"/>
    <trip id="bus215" type="bus_bus" depart="61.21" departLane="best" from="24895408#8" to="176477845#1"/>
    <trip id="bus216" type="bus_bus" depart="61.49" departLane="best" from="130848192#1" to="395300700#2"/>
    <trip id="bus217" type="bus_bus" depart="61.78" departLane="best" from="617718968" to="25154405#4"/>
    <trip id="bus218" type="bus_bus" depart="62.06" departLane="best" from="352403340#2" to="226525517#1"/>
    <trip id="bus219" type="bus_bus" depart="62.35" departLane="best" from="-25154977#8" to="24684917#3"/>
    <trip id="bus220" type="bus_bus" depart="62.63" departLane="best" from="222239500#2" to="24702765#0-AddedOffRampEdge"/>
    <trip id="bus221" type="bus_bus" depart="62.92" departLane="best" from="619286430#0" to="-876643258"/>
    <trip id="bus222" type="bus_bus" depart="63.20" departLane="best" from="124506584#1" to="569385785#2"/>
    <trip id="bus223" type="bus_bus" depart="63.49" departLane="best" from="569406313#0" to="-25154788#5"/>
    <trip id="bus224" type="bus_bus" depart="63.77" departLane="best" from="24850203#0" to="25154605"/>
    <trip id="bus225" type="bus_bus" depart="64.06" departLane="best" from="24850682#2" to="1195940711#0"/>
    <trip id="bus226" type="bus_bus" depart="64.34" departLane="best" from="24850741#4" to="854269186#1"/>
    <trip id="bus227" type="bus_bus" depart="64.63" departLane="best" from="25154931#5" to="569385799#2"/>
    <trip id="bus228" type="bus_bus" depart="64.91" departLane="best" from="685755047#0" to="617718965#10"/>
    <trip id="bus229" type="bus_bus" depart="65.20" departLane="best" from="24836146#2" to="-220814776#0"/>
    <trip id="bus230" type="bus_bus" depart="65.48" departLane="best" from="24734434#1" to="617638499#1"/>
    <trip id="bus231" type="bus_bus" depart="65.76" departLane="best" from="683249553#8" to="866798214#7"/>
    <trip id="bus232" type="bus_bus" depart="66.05" departLane="best" from="24850726#0" to="617633716#1"/>
    <trip id="bus233" type="bus_bus" depart="66.33" departLane="best" from="25154685#2" to="25165161#1"/>
    <trip id="bus234" type="bus_bus" depart="66.62" departLane="best" from="1233008419#0" to="618043858#3"/>
    <trip id="bus235" type="bus_bus" depart="66.90" departLane="best" from="24858435#2" to="24850741#1"/>
    <trip id="bus236" type="bus_bus" depart="67.19" departLane="best" from="24713397#1" to="569112537#2"/>
    <trip id="bus237" type="bus_bus" depart="67.47" departLane="best" from="24850149#7" to="1135049099"/>
    <trip id="bus238" type="bus_bus" depart="67.76" departLane="best" from="24893942#2" to="-833663407#0"/>
    <trip id="bus239" type="bus_bus" depart="68.04" departLane="best" from="331327969#1" to="24850200#1"/>
    <trip id="bus240" type="bus_bus" depart="68.33" departLane="best" from="24846970" to="25154779#0"/>
    <trip id="bus241" type="bus_bus" depart="68.61" departLane="best" from="-24847645#2" to="412804546#6"/>
    <trip id="bus242" type="bus_bus" depart="68.90" departLane="best" from="-859882526" to="24866767#2"/>
    <trip id="bus243" type="bus_bus" depart="69.18" departLane="best" from="-25154539" to="24836107#4"/>
    <trip id="bus244" type="bus_bus" depart="69.47" departLane="best" from="1198095261#0" to="24704056#13"/>
    <trip id="bus245" type="bus_bus" depart="69.75" departLane="best" from="617638517#8" to="24836107#4"/>
    <trip id="bus246" type="bus_bus" depart="70.04" departLane="best" from="617638498#1" to="654745872#1"/>
    <trip id="bus247" type="bus_bus" depart="70.32" departLane="best" from="1313577058#0" to="-25164436#2"/>
    <trip id="bus248" type="bus_bus" depart="70.60" departLane="best" from="-24734818#4" to="25154582#0"/>
    <trip id="bus249" type="bus_bus" depart="70.89" departLane="best" from="-99967614#2" to="24734199"/>
    <trip id="bus250" type="bus_bus" depart="71.17" departLane="best" from="437627508#0" to="618028624#1"/>
    <trip id="bus251" type="bus_bus" depart="71.46" departLane="best" from="451242915#2" to="617638499#6"/>
    <trip id="bus252" type="bus_bus" depart="71.74" departLane="best" from="866745480#4" to="24690022#0"/>
    <trip id="bus253" type="bus_bus" depart="72.03" departLane="best" from="-24734857" to="1120235110#0"/>
    <trip id="bus254" type="bus_bus" depart="72.31" departLane="best" departSpeed="max" from="-803409367#1" to="504290486#2"/>
    <trip id="bus255" type="bus_bus" depart="72.60" departLane="best" from="25154776#4" to="1232841045"/>
    <trip id="bus257" type="bus_bus" depart="73.17" departLane="best" from="617633716#8" to="-618366930#3"/>
    <trip id="bus258" type="bus_bus" depart="73.45" departLane="best" from="619286426#2" to="867133028#0"/>
    <trip id="bus259" type="bus_bus" depart="73.74" departLane="best" departSpeed="max" from="-569406314#1" to="-24836328"/>
    <trip id="bus260" type="bus_bus" depart="74.02" departLane="best" from="616593866#3" to="-25154932#5"/>
    <trip id="bus261" type="bus_bus" depart="74.31" departLane="best" from="569384315" to="352682600#2"/>