<?xml version="1.0" encoding="UTF-8"?>

<!-- generated on 2023-09-25 13:09:29 by Eclipse SUMO sumo Version 1.18.0
-->

<configuration xmlns:xsi="http://www.w3.org/2001/XMLSchema-instance" xsi:noNamespaceSchemaLocation="http://sumo.dlr.de/xsd/sumoConfiguration.xsd">

    <input>
        <net-file value="ejemplo.net.xml"/>
        <route-files value="trips.trips.xml"/>
    </input>

</configuration>
