<?xml version="1.0" encoding="UTF-8"?>

<!-- generated on 2023-10-11 13:34:04 by Eclipse SUMO netedit Version 1.18.0
-->

<additional xmlns:xsi="http://www.w3.org/2001/XMLSchema-instance" xsi:noNamespaceSchemaLocation="http://sumo.dlr.de/xsd/additional_file.xsd">
    <!-- Other additionals -->
    <rerouter id="rr1" edges="B2C2 C2B2" pos="194.00,195.40" probability="0.50">
        <interval begin="0.00" end="1000.00">
            <closingReroute id="B2C2" allow="private emergency authority army vip pedestrian hov taxi bus coach delivery truck trailer motorcycle moped bicycle evehicle tram rail_urban rail rail_electric rail_fast ship custom1 custom2"/>
            <closingReroute id="C2B2" allow="private emergency authority army vip pedestrian hov taxi bus coach delivery truck trailer motorcycle moped bicycle evehicle tram rail_urban rail rail_electric rail_fast ship custom1 custom2"/>
        </interval>
    </rerouter>
</additional>
