<?xml version="1.0" encoding="UTF-8"?>

<!-- generated on 2024-05-13 15:07:02 by Eclipse SUMO netedit Version v1_19_0+0016-8f48a0f57b6
-->

<additional xmlns:xsi="http://www.w3.org/2001/XMLSchema-instance" xsi:noNamespaceSchemaLocation="http://sumo.dlr.de/xsd/additional_file.xsd">
    <!-- JuPedSim elements -->
    <poly id="jps.walkable_area_0" type="jupedsim.walkable_area" color="179,217,255" fill="1" layer="1.00" shape="7698.480008,4046.197375 8259.257020,3946.746670 8291.539448,4166.475453 8377.452361,4147.210133 8556.094707,4119.647420 8554.417573,4110.423180 8306.201651,4154.867247 8276.013228,3936.839748 7691.531817,4037.467824 7696.563221,4050.046334 7698.480008,4046.197375"/>
</additional>
