<?xml version="1.0" encoding="UTF-8"?>

<!-- generated on 2023-08-10 12:40:11.858734 by osmWebWizard.py v1_18_0+0000-03ecfdea036
<configuration>
    <net-file value="C:\Users\ST\Desktop\2023-08-10-12-40-03\osm.net.xml.gz"/>
    <output-trip-file value="C:\Users\ST\Desktop\2023-08-10-12-40-03\osm.pedestrian.trips.xml"/>
    <route-file value="C:\Users\ST\Desktop\2023-08-10-12-40-03\osm.pedestrian.rou.xml"/>
    <pedestrians value="True"/>
    <prefix value="ped"/>
    <vehicle-class value="pedestrian"/>
    <fringe-factor value="1.01"/>
    <max-distance value="2000.0"/>
    <end value="360.0"/>
    <insertion-density value="31.0"/>
</configuration>
-->

<routes xmlns:xsi="http://www.w3.org/2001/XMLSchema-instance" xsi:noNamespaceSchemaLocation="http://sumo.dlr.de/xsd/routes_file.xsd">
    <vType id="ped_pedestrian" vClass="pedestrian"/>
    <person id="ped0" depart="0.00" type="ped_pedestrian">
        <walk from="4780792#0" to="-1163985762#1"/>
    </person>
    <person id="ped1" depart="0.60" type="ped_pedestrian">
        <walk from="-890011145" to="-854248813#0"/>
    </person>
    <person id="ped2" depart="1.20" type="ped_pedestrian">
        <walk from="616593861#1" to="531799968#0"/>
    </person>
    <person id="ped3" depart="1.80" type="ped_pedestrian">
        <walk from="859455980#0" to="-24850172#2"/>
    </person>
    <person id="ped4" depart="2.41" type="ped_pedestrian">
        <walk from="1186027583" to="-124179028#2"/>
    </person>
    <person id="ped5" depart="3.01" type="ped_pedestrian">
        <walk from="-854044801#1" to="24713969#5"/>
    </person>
    <person id="ped6" depart="3.61" type="ped_pedestrian">
        <walk from="4818259#0" to="24850149#0"/>
    </person>
    <person id="ped7" depart="4.21" type="ped_pedestrian">
        <walk from="-854044801#2" to="24936659#1"/>
    </person>
    <person id="ped8" depart="4.81" type="ped_pedestrian">
        <walk from="619140707#0" to="-1133030673#0"/>
    </person>
    <person id="ped9" depart="5.41" type="ped_pedestrian">
        <walk from="1095179480#2" to="-569114953#0"/>
    </person>
    <person id="ped10" depart="6.02" type="ped_pedestrian">
        <walk from="897963864#1" to="1095179479#1"/>
    </person>
    <person id="ped11" depart="6.62" type="ped_pedestrian">
        <walk from="-24858615#1" to="-24858660"/>
    </person>
    <person id="ped12" depart="7.22" type="ped_pedestrian">
        <walk from="685903218#12" to="354652710#0"/>
    </person>
    <person id="ped13" depart="7.82" type="ped_pedestrian">
        <walk from="24847759#1" to="929664772"/>
    </person>
    <person id="ped14" depart="8.42" type="ped_pedestrian">
        <walk from="1112322334#1" to="24850201#0"/>
    </person>
    <person id="ped15" depart="9.02" type="ped_pedestrian">
        <walk from="623906602" to="432043008#0"/>
    </person>
    <person id="ped16" depart="9.62" type="ped_pedestrian">
        <walk from="841108606#4" to="24859095#3"/>
    </person>
    <person id="ped17" depart="10.23" type="ped_pedestrian">
        <walk from="544680481#1" to="-24713863#1"/>
    </person>
    <person id="ped18" depart="10.83" type="ped_pedestrian">
        <walk from="-854280389#0" to="-897984836"/>
    </person>
    <person id="ped19" depart="11.43" type="ped_pedestrian">
        <walk from="1110162725#0" to="-775867754#2"/>
    </person>
    <person id="ped20" depart="12.03" type="ped_pedestrian">
        <walk from="-889137476" to="889137476"/>
    </person>
    <person id="ped21" depart="12.63" type="ped_pedestrian">
        <walk from="4818253#4" to="361358030#7"/>
    </person>
    <person id="ped22" depart="13.23" type="ped_pedestrian">
        <walk from="-616921713#4" to="580558028#1"/>
    </person>
    <person id="ped23" depart="13.84" type="ped_pedestrian">
        <walk from="-616813097#1" to="1118163641#2"/>
    </person>
    <person id="ped24" depart="14.44" type="ped_pedestrian">
        <walk from="950207537" to="4780792#1"/>
    </person>
    <person id="ped25" depart="15.04" type="ped_pedestrian">
        <walk from="24850912#1" to="532630408#2"/>
    </person>
    <person id="ped26" depart="15.64" type="ped_pedestrian">
        <walk from="-854280392" to="-144114924"/>
    </person>
    <person id="ped27" depart="16.24" type="ped_pedestrian">
        <walk from="1040120552#0" to="-889271866"/>
    </person>
    <person id="ped28" depart="16.84" type="ped_pedestrian">
        <walk from="887480061" to="124179028#0"/>
    </person>
    <person id="ped29" depart="17.44" type="ped_pedestrian">
        <walk from="-888078373" to="-887486812"/>
    </person>
    <person id="ped30" depart="18.05" type="ped_pedestrian">
        <walk from="24857892#0" to="-887834283"/>
    </person>
    <person id="ped31" depart="18.65" type="ped_pedestrian">
        <walk from="24859131#1" to="859731796#1"/>
    </person>
    <person id="ped32" depart="19.25" type="ped_pedestrian">
        <walk from="1150556492#0" to="-854044801#12"/>
    </person>
    <person id="ped33" depart="19.85" type="ped_pedestrian">
        <walk from="977414060#1" to="24715603#3"/>
    </person>
    <person id="ped34" depart="20.45" type="ped_pedestrian">
        <walk from="-24850201#3" to="-24713969#1"/>
    </person>
    <person id="ped35" depart="21.05" type="ped_pedestrian">
        <walk from="618043852#4" to="1186027584#0"/>
    </person>
    <person id="ped36" depart="21.66" type="ped_pedestrian">
        <walk from="-24836297#6" to="1133030673#1"/>
    </person>
    <person id="ped37" depart="22.26" type="ped_pedestrian">
        <walk from="954684514#3" to="24846907#12"/>
    </person>
    <person id="ped38" depart="22.86" type="ped_pedestrian">
        <walk from="925176211" to="841108606#2"/>
    </person>
    <person id="ped39" depart="23.46" type="ped_pedestrian">
        <walk from="-1135303298" to="569114953#0"/>
    </person>
    <person id="ped40" depart="24.06" type="ped_pedestrian">
        <walk from="532594671#1" to="24847759#2"/>
    </person>
    <person id="ped41" depart="24.66" type="ped_pedestrian">
        <walk from="-889116248" to="4780792#11"/>
    </person>
    <person id="ped42" depart="25.26" type="ped_pedestrian">
        <walk from="-24940406" to="1186027602#2"/>
    </person>
    <person id="ped43" depart="25.87" type="ped_pedestrian">
        <walk from="1191236877" to="896978139"/>
    </person>
    <person id="ped44" depart="26.47" type="ped_pedestrian">
        <walk from="854044801#12" to="-887834284"/>
    </person>
    <person id="ped45" depart="27.07" type="ped_pedestrian">
        <walk from="24703903#6" to="-617831539#5"/>
    </person>
    <person id="ped46" depart="27.67" type="ped_pedestrian">
        <walk from="885612151#0" to="846008893#3"/>
    </person>
    <person id="ped47" depart="28.27" type="ped_pedestrian">
        <walk from="-940583788" to="4780781#5"/>
    </person>
    <person id="ped48" depart="28.87" type="ped_pedestrian">
        <walk from="361358030#6" to="-526426983"/>
    </person>
    <person id="ped49" depart="29.48" type="ped_pedestrian">
        <walk from="616927352#1" to="24849974#0"/>
    </person>
    <person id="ped50" depart="30.08" type="ped_pedestrian">
        <walk from="617887678#2" to="24846907#14"/>
    </person>
    <person id="ped51" depart="30.68" type="ped_pedestrian">
        <walk from="-1021248528#1" to="1095176722#0"/>
    </person>
    <person id="ped52" depart="31.28" type="ped_pedestrian">
        <walk from="-1162919302#0" to="887808820"/>
    </person>
    <person id="ped53" depart="31.88" type="ped_pedestrian">
        <walk from="854044801#6" to="632251755#1"/>
    </person>
    <person id="ped54" depart="32.48" type="ped_pedestrian">
        <walk from="-24850149#7" to="217513586#0"/>
    </person>
    <person id="ped55" depart="33.08" type="ped_pedestrian">
        <walk from="-24846907#10" to="616927348#2"/>
    </person>
    <person id="ped56" depart="33.69" type="ped_pedestrian">
        <walk from="616927359#3" to="-438721545#4"/>
    </person>
    <person id="ped57" depart="34.29" type="ped_pedestrian">
        <walk from="183253582#0" to="24850172#2"/>
    </person>
    <person id="ped58" depart="34.89" type="ped_pedestrian">
        <walk from="-888079357" to="847324972#0"/>
    </person>
    <person id="ped59" depart="35.49" type="ped_pedestrian">
        <walk from="1186027586" to="-843227661"/>
    </person>
    <person id="ped60" depart="36.09" type="ped_pedestrian">
        <walk from="24849974#0" to="580558029"/>
    </person>
    <person id="ped61" depart="36.69" type="ped_pedestrian">
        <walk from="-656097935" to="1026269351#2"/>
    </person>
    <person id="ped62" depart="37.29" type="ped_pedestrian">
        <walk from="954684514#1" to="4818259#0"/>
    </person>
    <person id="ped63" depart="37.90" type="ped_pedestrian">
        <walk from="1186027605#1" to="24836247#1"/>
    </person>
    <person id="ped64" depart="38.50" type="ped_pedestrian">
        <walk from="-856041979#1" to="-854044801#2"/>
    </person>
    <person id="ped65" depart="39.10" type="ped_pedestrian">
        <walk from="-24846907#14" to="456118122#2"/>
    </person>
    <person id="ped66" depart="39.70" type="ped_pedestrian">
        <walk from="-854280392" to="866738547#1"/>
    </person>
    <person id="ped67" depart="40.30" type="ped_pedestrian">
        <walk from="775867755#1" to="-24846907#13"/>
    </person>
    <person id="ped68" depart="40.90" type="ped_pedestrian">
        <walk from="-866735729" to="531793101"/>
    </person>
    <person id="ped69" depart="41.51" type="ped_pedestrian">
        <walk from="-846008893#1" to="-456118122#12"/>
    </person>
    <person id="ped70" depart="42.11" type="ped_pedestrian">
        <walk from="889116247" to="24859025#2"/>
    </person>
    <person id="ped71" depart="42.71" type="ped_pedestrian">
        <walk from="176472494#0" to="618028613#3"/>
    </person>
    <person id="ped72" depart="43.31" type="ped_pedestrian">
        <walk from="619140702" to="-618043852#5"/>
    </person>
    <person id="ped73" depart="43.91" type="ped_pedestrian">
        <walk from="-24858698#2" to="1186027599#1"/>
    </person>
    <person id="ped74" depart="44.51" type="ped_pedestrian">
        <walk from="1186027588#0" to="157051125#2"/>
    </person>
    <person id="ped75" depart="45.11" type="ped_pedestrian">
        <walk from="580558028#1" to="531799965#0"/>
    </person>
    <person id="ped76" depart="45.72" type="ped_pedestrian">
        <walk from="944470751#2" to="-24858698#5"/>
    </person>
    <person id="ped77" depart="46.32" type="ped_pedestrian">
        <walk from="1156833883" to="1095179480#0"/>
    </person>
    <person id="ped78" depart="46.92" type="ped_pedestrian">
        <walk from="841108606#4" to="-887486817"/>
    </person>
    <person id="ped79" depart="47.52" type="ped_pedestrian">
        <walk from="-618043852#4" to="1186037620#1"/>
    </person>
    <person id="ped80" depart="48.12" type="ped_pedestrian">
        <walk from="1186027583" to="-890011151"/>
    </person>
    <person id="ped81" depart="48.72" type="ped_pedestrian">
        <walk from="-887486818#1" to="887488408"/>
    </person>
    <person id="ped82" depart="49.33" type="ped_pedestrian">
        <walk from="1186037615#2" to="841108606#3"/>
    </person>
    <person id="ped83" depart="49.93" type="ped_pedestrian">
        <walk from="24850172#3" to="-24714067#3"/>
    </person>
    <person id="ped84" depart="50.53" type="ped_pedestrian">
        <walk from="992941277#2" to="656097939#0"/>
    </person>
    <person id="ped85" depart="51.13" type="ped_pedestrian">
        <walk from="904281984#0" to="887488414"/>
    </person>
    <person id="ped86" depart="51.73" type="ped_pedestrian">
        <walk from="685903218#14" to="-616813098#1"/>
    </person>
    <person id="ped87" depart="52.33" type="ped_pedestrian">
        <walk from="217325381#3" to="-846008893#0"/>
    </person>
    <person id="ped88" depart="52.93" type="ped_pedestrian">
        <walk from="1150825150" to="-24836098#7"/>
    </person>
    <person id="ped89" depart="53.54" type="ped_pedestrian">
        <walk from="1112322334#1" to="944470753"/>
    </person>
    <person id="ped90" depart="54.14" type="ped_pedestrian">
        <walk from="1191236943" to="1186027586"/>
    </person>
    <person id="ped91" depart="54.74" type="ped_pedestrian">
        <walk from="897963864#1" to="954684514#2"/>
    </person>
    <person id="ped92" depart="55.34" type="ped_pedestrian">
        <walk from="24850906" to="569114946#1"/>
    </person>
    <person id="ped93" depart="55.94" type="ped_pedestrian">
        <walk from="-569114952#0" to="-929664772"/>
    </person>
    <person id="ped94" depart="56.54" type="ped_pedestrian">
        <walk from="904261096#5" to="24859099#2"/>
    </person>
    <person id="ped95" depart="57.15" type="ped_pedestrian">
        <walk from="24850011" to="616920375#3"/>
    </person>
    <person id="ped96" depart="57.75" type="ped_pedestrian">
        <walk from="-24836098#3" to="24859131#0"/>
    </person>
    <person id="ped97" depart="58.35" type="ped_pedestrian">
        <walk from="24713863#1" to="685903218#8"/>
    </person>
    <person id="ped98" depart="58.95" type="ped_pedestrian">
        <walk from="-569114957#1" to="897984837"/>
    </person>
    <person id="ped99" depart="59.55" type="ped_pedestrian">
        <walk from="268796832#0" to="531799965#4"/>
    </person>
    <person id="ped100" depart="60.15" type="ped_pedestrian">
        <walk from="-859478072#3" to="-361358030#8"/>
    </person>
    <person id="ped101" depart="60.75" type="ped_pedestrian">
        <walk from="24940406" to="432043011#0"/>
    </person>
    <person id="ped102" depart="61.36" type="ped_pedestrian">
        <walk from="1185813521#1" to="24859129#2"/>
    </person>
    <person id="ped103" depart="61.96" type="ped_pedestrian">
        <walk from="24836297#9" to="888087608"/>
    </person>
    <person id="ped104" depart="62.56" type="ped_pedestrian">
        <walk from="1040120553#1" to="616921713#0"/>
    </person>
    <person id="ped105" depart="63.16" type="ped_pedestrian">
        <walk from="992941262" to="954684514#3"/>
    </person>
    <person id="ped106" depart="63.76" type="ped_pedestrian">
        <walk from="-888079357" to="887862036"/>
    </person>
    <person id="ped107" depart="64.36" type="ped_pedestrian">
        <walk from="854280389#1" to="854248811"/>
    </person>
    <person id="ped108" depart="64.97" type="ped_pedestrian">
        <walk from="1110162724#1" to="-569114957#1"/>
    </person>
    <person id="ped109" depart="65.57" type="ped_pedestrian">
        <walk from="632251755#5" to="544680480#1"/>
    </person>
    <person id="ped110" depart="66.17" type="ped_pedestrian">
        <walk from="375576693" to="944472995#1"/>
    </person>
    <person id="ped111" depart="66.77" type="ped_pedestrian">
        <walk from="516714775#0" to="-1135302403"/>
    </person>
    <person id="ped112" depart="67.37" type="ped_pedestrian">
        <walk from="621038379#3" to="-941489846"/>
    </person>
    <person id="ped113" depart="67.97" type="ped_pedestrian">
        <walk from="526426983" to="889271867#1"/>
    </person>
    <person id="ped114" depart="68.57" type="ped_pedestrian">
        <walk from="-24859131#1" to="24850201#2"/>
    </person>
    <person id="ped115" depart="69.18" type="ped_pedestrian">
        <walk from="569114945" to="-687695197#1"/>
    </person>
    <person id="ped116" depart="69.78" type="ped_pedestrian">
        <walk from="457847968" to="-887862036"/>
    </person>
    <person id="ped117" depart="70.38" type="ped_pedestrian">
        <walk from="685903218#1" to="-24858131#3"/>
    </person>
    <person id="ped118" depart="70.98" type="ped_pedestrian">
        <walk from="1186027588#0" to="-890011147"/>
    </person>
    <person id="ped119" depart="71.58" type="ped_pedestrian">
        <walk from="-1026269657#1" to="617718981#3"/>
    </person>
    <person id="ped120" depart="72.18" type="ped_pedestrian">
        <walk from="4780781#1" to="-887814460"/>
    </person>
    <person id="ped121" depart="72.79" type="ped_pedestrian">
        <walk from="616813098#1" to="24850172#6"/>
    </person>
    <person id="ped122" depart="73.39" type="ped_pedestrian">
        <walk from="1186027596" to="-1135302410#0"/>
    </person>
    <person id="ped123" depart="73.99" type="ped_pedestrian">
        <walk from="866735728#1" to="24850149#1"/>
    </person>
    <person id="ped124" depart="74.59" type="ped_pedestrian">
        <walk from="656096034" to="24859129#0"/>
    </person>
    <person id="ped125" depart="75.19" type="ped_pedestrian">
        <walk from="-516714775#0" to="-438721545#2"/>
    </person>
    <person id="ped126" depart="75.79" type="ped_pedestrian">
        <walk from="1014496956" to="866463954"/>
    </person>
    <person id="ped127" depart="76.39" type="ped_pedestrian">
        <walk from="618045930#0" to="841108606#2"/>
    </person>
    <person id="ped128" depart="77.00" type="ped_pedestrian">
        <walk from="866463954" to="-775867755#0"/>
    </person>
    <person id="ped129" depart="77.60" type="ped_pedestrian">
        <walk from="618028612#0" to="855627386#2"/>
    </person>
    <person id="ped130" depart="78.20" type="ped_pedestrian">
        <walk from="1162729338#1" to="432046500#0"/>
    </person>
    <person id="ped131" depart="78.80" type="ped_pedestrian">
        <walk from="-569114952#0" to="887808822#0"/>
    </person>
    <person id="ped132" depart="79.40" type="ped_pedestrian">
        <walk from="841108611" to="940583788"/>
    </person>
    <person id="ped133" depart="80.00" type="ped_pedestrian">
        <walk from="621037694" to="854280391"/>
    </person>
    <person id="ped134" depart="80.61" type="ped_pedestrian">
        <walk from="1095179477#1" to="887814460"/>
    </person>
    <person id="ped135" depart="81.21" type="ped_pedestrian">
        <walk from="618106730#5" to="841108610#1"/>
    </person>
    <person id="ped136" depart="81.81" type="ped_pedestrian">
        <walk from="621037694" to="-889137476"/>
    </person>
    <person id="ped137" depart="82.41" type="ped_pedestrian">
        <walk from="618028619#0" to="-24936481#1"/>
    </person>
    <person id="ped138" depart="83.01" type="ped_pedestrian">
        <walk from="847324972#0" to="775867754#2"/>
    </person>
    <person id="ped139" depart="83.61" type="ped_pedestrian">
        <walk from="-854044801#7" to="621038379#3"/>
    </person>
    <person id="ped140" depart="84.21" type="ped_pedestrian">
        <walk from="124179028#2" to="1012907064#2"/>
    </person>
    <person id="ped141" depart="84.82" type="ped_pedestrian">
        <walk from="618043859#1" to="-854280388"/>
    </person>
    <person id="ped142" depart="85.42" type="ped_pedestrian">
        <walk from="-1163740457" to="-618043859#0"/>
    </person>
    <person id="ped143" depart="86.02" type="ped_pedestrian">
        <walk from="1095176722#5" to="841108610#1"/>
    </person>
    <person id="ped144" depart="86.62" type="ped_pedestrian">
        <walk from="944470746#2" to="24847759#1"/>
    </person>
    <person id="ped145" depart="87.22" type="ped_pedestrian">
        <walk from="889271867#1" to="-354652709#0"/>
    </person>
    <person id="ped146" depart="87.82" type="ped_pedestrian">
        <walk from="91976750#1" to="-617831539#5"/>
    </person>
    <person id="ped147" depart="88.43" type="ped_pedestrian">
        <walk from="899731514#1" to="-888087608"/>
    </person>
    <person id="ped148" depart="89.03" type="ped_pedestrian">
        <walk from="-24936481#2" to="1186027602#2"/>
    </person>
    <person id="ped149" depart="89.63" type="ped_pedestrian">
        <walk from="569114957#6" to="1040120542"/>
    </person>
    <person id="ped150" depart="90.23" type="ped_pedestrian">
        <walk from="361358030#0" to="24715664#5"/>
    </person>
    <person id="ped151" depart="90.83" type="ped_pedestrian">
        <walk from="1135992415#2" to="24859095#1"/>
    </person>
    <person id="ped152" depart="91.43" type="ped_pedestrian">
        <walk from="-887488408" to="548010128#3"/>
    </person>
    <person id="ped153" depart="92.03" type="ped_pedestrian">
        <walk from="-1026269351#1" to="887488412#1"/>
    </person>
    <person id="ped154" depart="92.64" type="ped_pedestrian">
        <walk from="24849973#1" to="569114948#1"/>
    </person>
    <person id="ped155" depart="93.24" type="ped_pedestrian">
        <walk from="616813098#2" to="531793103#3"/>
    </person>
    <person id="ped156" depart="93.84" type="ped_pedestrian">
        <walk from="1110162721#3" to="-24846907#11"/>
    </person>
    <person id="ped157" depart="94.44" type="ped_pedestrian">
        <walk from="526479245" to="1095176722#9"/>
    </person>
    <person id="ped158" depart="95.04" type="ped_pedestrian">
        <walk from="1040120542" to="685903218#13"/>
    </person>
    <person id="ped159" depart="95.64" type="ped_pedestrian">
        <walk from="1017986167#1" to="1162919302#1"/>
    </person>
    <person id="ped160" depart="96.24" type="ped_pedestrian">
        <walk from="1151094178" to="-929664769"/>
    </person>
    <person id="ped161" depart="96.85" type="ped_pedestrian">
        <walk from="-438721545#2" to="1185813521#4"/>
    </person>
    <person id="ped162" depart="97.45" type="ped_pedestrian">
        <walk from="866735727#1" to="425206430#2"/>
    </person>
    <person id="ped163" depart="98.05" type="ped_pedestrian">
        <walk from="1012907059#1" to="24850149#6"/>
    </person>
    <person id="ped164" depart="98.65" type="ped_pedestrian">
        <walk from="-1021248528#0" to="-897978427"/>
    </person>
    <person id="ped165" depart="99.25" type="ped_pedestrian">
        <walk from="1186027598#3" to="24859099#4"/>
    </person>
    <person id="ped166" depart="99.85" type="ped_pedestrian">
        <walk from="1186037614#1" to="-846008893#0"/>
    </person>
    <person id="ped167" depart="100.46" type="ped_pedestrian">
        <walk from="176472494#1" to="866466953#2"/>
    </person>
    <person id="ped168" depart="101.06" type="ped_pedestrian">
        <walk from="618043860" to="-616921713#13"/>
    </person>
    <person id="ped169" depart="101.66" type="ped_pedestrian">
        <walk from="-24850149#5" to="24836098#4"/>
    </person>
    <person id="ped170" depart="102.26" type="ped_pedestrian">
        <walk from="456118122#9" to="1095179478#1"/>
    </person>
    <person id="ped171" depart="102.86" type="ped_pedestrian">
        <walk from="621038379#6" to="616920376#5"/>
    </person>
    <person id="ped172" depart="103.46" type="ped_pedestrian">
        <walk from="-618106730#4" to="-1163985760"/>
    </person>
    <person id="ped173" depart="104.06" type="ped_pedestrian">
        <walk from="-887431154#1" to="183253582#0"/>
    </person>
    <person id="ped174" depart="104.67" type="ped_pedestrian">
        <walk from="1163985764" to="456118122#11"/>
    </person>
    <person id="ped175" depart="105.27" type="ped_pedestrian">
        <walk from="-618045930#0" to="544680465"/>
    </person>
    <person id="ped176" depart="105.87" type="ped_pedestrian">
        <walk from="235361237#1" to="-885100273#2"/>
    </person>
    <person id="ped177" depart="106.47" type="ped_pedestrian">
        <walk from="517139709#1" to="-1118163641#2"/>
    </person>
    <person id="ped178" depart="107.07" type="ped_pedestrian">
        <walk from="616920376#5" to="617718981#1"/>
    </person>
    <person id="ped179" depart="107.67" type="ped_pedestrian">
        <walk from="-24859131#0" to="1186027592#1"/>
    </person>
    <person id="ped180" depart="108.28" type="ped_pedestrian">
        <walk from="-617718993#0" to="897978428"/>
    </person>
    <person id="ped181" depart="108.88" type="ped_pedestrian">
        <walk from="24836247#1" to="-24714067#2"/>
    </person>
    <person id="ped182" depart="109.48" type="ped_pedestrian">
        <walk from="1194650768#0" to="618106730#4"/>
    </person>
    <person id="ped183" depart="110.08" type="ped_pedestrian">
        <walk from="531793096#1" to="944472995#2"/>
    </person>
    <person id="ped184" depart="110.68" type="ped_pedestrian">
        <walk from="268796832#1" to="890033605"/>
    </person>
    <person id="ped185" depart="111.28" type="ped_pedestrian">
        <walk from="859448272#2" to="396567315"/>
    </person>
    <person id="ped186" depart="111.88" type="ped_pedestrian">
        <walk from="569114948#1" to="24713969#3"/>
    </person>
    <person id="ped187" depart="112.49" type="ped_pedestrian">
        <walk from="632251753" to="24850149#6"/>
    </person>
    <person id="ped188" depart="113.09" type="ped_pedestrian">
        <walk from="859478072#4" to="616920374#1"/>
    </person>
    <person id="ped189" depart="113.69" type="ped_pedestrian">
        <walk from="176477845#1" to="-887735913"/>
    </person>
    <person id="ped190" depart="114.29" type="ped_pedestrian">
        <walk from="-887486813" to="4780781#2"/>
    </person>
    <person id="ped191" depart="114.89" type="ped_pedestrian">
        <walk from="616927359#3" to="24836297#5"/>
    </person>
    <person id="ped192" depart="115.49" type="ped_pedestrian">
        <walk from="438721545#7" to="-890011144"/>
    </person>
    <person id="ped193" depart="116.10" type="ped_pedestrian">
        <walk from="-24849974#1" to="-896994613"/>
    </person>
    <person id="ped194" depart="116.70" type="ped_pedestrian">
        <walk from="-890011132#0" to="1040126461#3"/>
    </person>
    <person id="ped195" depart="117.30" type="ped_pedestrian">
        <walk from="24849974#2" to="-4780792#2"/>
    </person>
    <person id="ped196" depart="117.90" type="ped_pedestrian">
        <walk from="-856041980#1" to="544678921#5"/>
    </person>
    <person id="ped197" depart="118.50" type="ped_pedestrian">
        <walk from="544680748" to="-24836297#8"/>
    </person>
    <person id="ped198" depart="119.10" type="ped_pedestrian">
        <walk from="1162862269#0" to="24850107#0"/>
    </person>
    <person id="ped199" depart="119.70" type="ped_pedestrian">
        <walk from="1185813521#3" to="866738546#1"/>
    </person>
    <person id="ped200" depart="120.31" type="ped_pedestrian">
        <walk from="24859131#0" to="544680463"/>
    </person>
    <person id="ped201" depart="120.91" type="ped_pedestrian">
        <walk from="775867753#1" to="616927359#3"/>
    </person>
    <person id="ped202" depart="121.51" type="ped_pedestrian">
        <walk from="1129779399" to="-1129779399"/>
    </person>
    <person id="ped203" depart="122.11" type="ped_pedestrian">
        <walk from="1107792545#1" to="616921713#11"/>
    </person>
    <person id="ped204" depart="122.71" type="ped_pedestrian">
        <walk from="685903218#9" to="896978138"/>
    </person>
    <person id="ped205" depart="123.31" type="ped_pedestrian">
        <walk from="1172193011" to="616920375#2"/>
    </person>
    <person id="ped206" depart="123.92" type="ped_pedestrian">
        <walk from="24850149#2" to="354652709#1"/>
    </person>
    <person id="ped207" depart="124.52" type="ped_pedestrian">
        <walk from="-854044801#3" to="-854044801#12"/>
    </person>
    <person id="ped208" depart="125.12" type="ped_pedestrian">
        <walk from="1186027603#1" to="-124179028#0"/>
    </person>
    <person id="ped209" depart="125.72" type="ped_pedestrian">
        <walk from="1095179479#0" to="531805080"/>
    </person>
    <person id="ped210" depart="126.32" type="ped_pedestrian">
        <walk from="1161952787#1" to="-616813097#5"/>
    </person>
    <person id="ped211" depart="126.92" type="ped_pedestrian">
        <walk from="157051125#2" to="-438721545#3"/>
    </person>
    <person id="ped212" depart="127.52" type="ped_pedestrian">
        <walk from="437627508#0" to="-1164241140"/>
    </person>
    <person id="ped213" depart="128.13" type="ped_pedestrian">
        <walk from="1150556483#2" to="24858615#4"/>
    </person>
    <person id="ped214" depart="128.73" type="ped_pedestrian">
        <walk from="-1164241140" to="4780792#3"/>
    </person>
    <person id="ped215" depart="129.33" type="ped_pedestrian">
        <walk from="-4780792#0" to="124179028#5"/>
    </person>
    <person id="ped216" depart="129.93" type="ped_pedestrian">
        <walk from="-24714067#2" to="1118163641#1"/>
    </person>
    <person id="ped217" depart="130.53" type="ped_pedestrian">
        <walk from="-843227661" to="1095176722#2"/>
    </person>
    <person id="ped218" depart="131.13" type="ped_pedestrian">
        <walk from="616927348#3" to="1118163641#1"/>
    </person>
    <person id="ped219" depart="131.74" type="ped_pedestrian">
        <walk from="616921713#0" to="632251755#1"/>
    </person>
    <person id="ped220" depart="132.34" type="ped_pedestrian">
        <walk from="-887486818#6" to="-24850107#4"/>
    </person>
    <person id="ped221" depart="132.94" type="ped_pedestrian">
        <walk from="-1162919302#0" to="24849974#0"/>
    </person>
    <person id="ped222" depart="133.54" type="ped_pedestrian">
        <walk from="992941277#3" to="1107792543#3"/>
    </person>
    <person id="ped223" depart="134.14" type="ped_pedestrian">
        <walk from="4818259#0" to="618028613#0"/>
    </person>
    <person id="ped224" depart="134.74" type="ped_pedestrian">
        <walk from="4818259#4" to="616921713#13"/>
    </person>
    <person id="ped225" depart="135.34" type="ped_pedestrian">
        <walk from="890011151" to="-618106730#4"/>
    </person>
    <person id="ped226" depart="135.95" type="ped_pedestrian">
        <walk from="-438721545#0" to="531793102"/>
    </person>
    <person id="ped227" depart="136.55" type="ped_pedestrian">
        <walk from="24858615#2" to="-853496385#1"/>
    </person>
    <person id="ped228" depart="137.15" type="ped_pedestrian">
        <walk from="544680471" to="616986344#0"/>