<?xml version="1.0" encoding="UTF-8"?>

<!-- generated on 2023-08-10 13:22:43 by Eclipse SUMO netedit Version 1.18.0
-->

<routes xmlns:xsi="http://www.w3.org/2001/XMLSchema-instance" xsi:noNamespaceSchemaLocation="http://sumo.dlr.de/xsd/routes_file.xsd">
    <!-- VTypes -->
    <vType id="manifestante" length="1.00" maxSpeed="1.00" desiredMaxSpeed="1.00" vClass="pedestrian" guiShape="ant" jmCrossingGap="100" jmDriveAfterYellowTime="100" jmDriveAfterRedTime="100" jmIgnoreKeepClearTime="100" accel="1" decel="1"/>
    <vType id="ped_pedestrian" vClass="pedestrian"/>
    <vType id="veh_passenger" vClass="passenger"/>
    <!-- Vehicles, persons and containers (sorted by depart) -->
    <trip id="veh0" type="veh_passenger" depart="0.00" departLane="best" from="569114957#2" to="617718993#2"/>
    <person id="ped0" type="ped_pedestrian" depart="0.00">
        <walk edges="4780792#0 4780792#1 4780792#2 4780792#3 4780792#4 4780792#5 4780792#6 4780792#7 4780792#8 4780792#9 24866679 24846907#8 617831539#6 617831539#7 1163985762#0 -1163985762#1"/>
    </person>
    <trip id="veh1" type="veh_passenger" depart="0.16" departLane="best" from="24836172#4" to="24715534#1"/>
    <trip id="veh2" type="veh_passenger" depart="0.31" departLane="best" from="617887687#1" to="616921713#12"/>
    <trip id="veh3" type="veh_passenger" depart="0.47" departLane="best" from="854280395" to="1161202416#2"/>
    <trip id="veh4" type="veh_passenger" depart="0.63" departLane="best" from="24858131#2" to="-847324971"/>
    <trip id="veh5" type="veh_passenger" depart="0.79" departLane="best" from="24713969#5" to="302116343#1"/>
    <trip id="veh6" type="veh_passenger" depart="0.94" departLane="best" from="-618053641" to="24703741#6"/>
    <trip id="veh7" type="veh_passenger" depart="1.10" departLane="best" from="616812019#1" to="421567701#1"/>
    <trip id="veh8" type="veh_passenger" depart="1.26" departLane="best" departSpeed="max" from="654836802" to="-24850201#0"/>
    <trip id="veh9" type="veh_passenger" depart="1.41" departLane="best" from="618106730#6" to="569114944#1"/>
    <trip id="veh10" type="veh_passenger" depart="1.57" departLane="best" departSpeed="max" from="24850065#0" to="124509623#2"/>
    <trip id="veh11" type="veh_passenger" depart="1.73" departLane="best" departSpeed="max" from="903898684" to="24849974#5"/>
    <person id="ped3" type="ped_pedestrian" depart="1.80">
        <walk edges="859455980#0 -616921713#4 -616921713#5 944470755 616920375#3 580564319 580564317#2 621037789 621037786#4 621037786#5 621037786#6 548010145 548010128#3 548010128#2 548010128#1 548010128#0 544680749 621038380#3 621038380#2 621038380#1 544680468 552454636#1 552454641 616920376#6 944470746#0 944470746#1 944470745 372325026 616927359#1 944470751#0 537587869 -854248813#0 854248814 -24850172#6 -24850172#5 -24850172#4 -24850172#3 -24850172#2"/>
    </person>
    <trip id="veh12" type="veh_passenger" depart="1.89" departLane="best" from="1161950334#1" to="1162728917#1"/>
    <trip id="veh13" type="veh_passenger" depart="2.04" departLane="best" from="743234928#1" to="517139709#2"/>
    <trip id="veh14" type="veh_passenger" depart="2.20" departLane="best" departSpeed="max" from="618106741#0" to="617831539#7"/>
    <trip id="veh15" type="veh_passenger" depart="2.36" departLane="best" from="421567701#0" to="904258813#0"/>
    <trip id="veh16" type="veh_passenger" depart="2.51" departLane="best" from="24850271#6" to="432043007#2"/>
    <trip id="veh17" type="veh_passenger" depart="2.67" departLane="best" from="688753795#2" to="569114952#1"/>
    <trip id="veh18" type="veh_passenger" depart="2.83" departLane="best" from="846008893#4" to="4780792#2"/>
    <person id="ped5" type="ped_pedestrian" depart="3.01">
        <walk edges="-854044801#1 -854044801#0 -1135302405 1135302406 1135302408 846008895 1135302411#0 187679421#1 187679421#3 187679421#4 -187679421#5 -187679421#6 -187679421#7 -856041980#2 -24713969#0 24713969#1 24713969#2 24713969#3 24713969#5"/>
    </person>
    <trip id="veh20" type="veh_passenger" depart="3.14" departLane="best" from="24715534#10" to="-24836301"/>
    <trip id="veh21" type="veh_passenger" depart="3.30" departLane="best" from="1150556478#0" to="24715534#15"/>
    <trip id="veh22" type="veh_passenger" depart="3.46" departLane="best" from="1162729330#1" to="24836247#1"/>
    <trip id="veh23" type="veh_passenger" depart="3.61" departLane="best" from="569114956#6" to="-24850203#0"/>
    <person id="ped6" type="ped_pedestrian" depart="3.61">
        <walk edges="4818259#0 -941489846 -1135303298 24850149#0"/>
    </person>
    <trip id="veh24" type="veh_passenger" depart="3.77" departLane="best" from="24850243#3" to="24713863#1"/>
    <trip id="veh25" type="veh_passenger" depart="3.93" departLane="best" from="24836098#4" to="866469053#1"/>
    <trip id="veh26" type="veh_passenger" depart="4.09" departLane="best" from="611387518#1" to="532386051#0"/>
    <trip id="veh27" type="veh_passenger" depart="4.24" departLane="best" from="176444016#6" to="617831539#6"/>
    <trip id="veh28" type="veh_passenger" depart="4.40" departLane="best" from="158032457#3" to="24850282#6"/>
    <trip id="veh29" type="veh_passenger" depart="4.56" departLane="best" from="916017996#1" to="569114956#4"/>
    <trip id="veh30" type="veh_passenger" depart="4.71" departLane="best" from="438721545#2" to="616921713#6"/>
    <person id="ped8" type="ped_pedestrian" depart="4.81">
        <walk edges="619140707#0 1186037619#3 4780792#13 4780792#12 4780792#11 4780792#10 4780792#9 4780792#8 4780792#7 4780792#6 4780792#5 4780792#4 4780792#3 4780792#2 4780792#1 4780792#0 1162729338#1 1162729338#0 1135302406 1135302404 618045930#2 -618045930#1 -618045930#0 -1135302402 -618028619#4 -618028619#3 -618028619#2 -618028619#1 -885100270 -1133030673#0"/>
    </person>
    <trip id="veh32" type="veh_passenger" depart="5.03" departLane="best" from="24715534#11" to="859478072#2"/>
    <trip id="veh33" type="veh_passenger" depart="5.19" departLane="best" from="24846907#3" to="24836098#5"/>
    <trip id="veh34" type="veh_passenger" depart="5.34" departLane="best" from="24713393" to="866747389#0"/>
    <person id="ped9" type="ped_pedestrian" depart="5.41">
        <walk edges="1095179480#2 1095179480#1 1095179480#0 1095179477#6 1095179477#5 685903218#10 685903218#9 685903218#8 569114952#1 569114945 569114953#0 -569114953#0"/>
    </person>
    <trip id="veh35" type="veh_passenger" depart="5.50" departLane="best" from="854248814" to="24846907#3"/>
    <trip id="veh36" type="veh_passenger" depart="5.66" departLane="best" from="616812020#3" to="24850772#10"/>
    <trip id="veh37" type="veh_passenger" depart="5.81" departLane="best" from="859448272#2" to="24859087#2"/>
    <trip id="veh38" type="veh_passenger" depart="5.97" departLane="best" from="24836098#2" to="24715534#9"/>
    <person id="ped10" type="ped_pedestrian" depart="6.02">
        <walk edges="897963864#1 352403336#2 352403336#3 352403336#4 618045930#0 618045930#1 618045930#2 1135302404 1135302406 1135302408 846008895 -616921713#15 -616921713#14 -616921713#13 623558865 1096409934 992941277#1 544680485 621038379#6 621038379#1 621038383 621038382#3 621038382#4 621038384 621038380#4 621038380#3 544680469 841108606#5 841108606#1 841108607 544678921#5 944470748 372325025 685755049#3 24859095#0 24859094#3 24859094#2 24859094#1 1095179480#0 1095179479#6 1095179479#5 1095179479#4 1095179479#3 1095179479#2 1095179479#1"/>
    </person>
    <trip id="veh39" type="veh_passenger" depart="6.13" departLane="best" from="451242915#1" to="24836098#2"/>
    <trip id="veh40" type="veh_passenger" depart="6.29" departLane="best" from="4818253#4" to="855599853#3"/>
    <trip id="veh41" type="veh_passenger" depart="6.44" departLane="best" from="24850772#6" to="24714067#3"/>
    <trip id="veh42" type="veh_passenger" depart="6.60" departLane="best" from="932642939#1" to="302116346#1"/>
    <trip id="veh44" type="veh_passenger" depart="6.91" departLane="best" from="1163707423" to="569114954#3"/>
    <trip id="veh45" type="veh_passenger" depart="7.07" departLane="best" from="618098749#0" to="24858131#3"/>
    <person id="ped12" type="ped_pedestrian" depart="7.22">
        <walk edges="685903218#12 1095179479#5 1095179479#6 1095179480#0 24859094#1 24859094#2 24859094#3 24859095#0 685755049#3 372325025 944470748 544678921#5 841108607 841108606#1 841108606#5 544680469 621038380#3 621038380#4 621038384 621038382#4 621038382#3 621038383 621038379#1 621038379#6 544680485 992941277#1 1096409934 623558865 -616921713#13 -616921713#14 -616921713#15 4780781#0 4780781#1 4780781#2 4780781#3 4780781#4 4780781#5 885612152#1 885612151#0 885612151#1 1186027596 -1172193011 -887431154#1 -887431154#2 -1168452026#0 -1168452026#1 -1138585950#0 -1138585950#1 1186037612#1 1186037612#2 1186037612#3 24850912#4 354652710#0"/>
    </person>
    <trip id="veh46" type="veh_passenger" depart="7.23" departLane="best" from="1135302408" to="24850668#0"/>
    <trip id="veh47" type="veh_passenger" depart="7.39" departLane="best" from="904257869" to="845518111#1"/>
    <trip id="veh48" type="veh_passenger" depart="7.54" departLane="best" departSpeed="max" from="-24850741#3" to="617718973#5"/>
    <trip id="veh49" type="veh_passenger" depart="7.70" departLane="best" from="24836098#3" to="569114956#5"/>
    <person id="ped13" type="ped_pedestrian" depart="7.82">
        <walk edges="24847759#1 846008893#2 846008893#1 846008893#0 1162729330#2 1162729330#1 1162729330#0 24847028#2 4780781#3 4780781#2 4780781#1 4780781#0 -616921713#15 -616921713#14 -616921713#13 623558865 1096409934 992941277#1 544680485 621038379#6 621038379#1 621038383 621038382#3 621038382#4 621038384 621038380#4 621038380#3 544680469 841108606#5 841108606#1 841108607 544678921#5 944470748 372325025 685755049#3 24859095#0 24859094#3 24859094#2 24859094#1 1095179480#0 1095179477#6 1095179477#5 1095179477#4 1095179477#3 1095179477#2 1095179477#1 1095179477#0 1095179478#1 24858698#6 24858698#5 -929664770 929664772"/>
    </person>
    <trip id="veh50" type="veh_passenger" depart="7.86" departLane="best" from="1163707425" to="24858500#5"/>
    <trip id="veh51" type="veh_passenger" depart="8.01" departLane="best" from="24859025#5" to="903409237#1"/>
    <trip id="veh52" type="veh_passenger" depart="8.17" departLane="best" from="854248814" to="24836098#3"/>
    <trip id="veh53" type="veh_passenger" depart="8.33" departLane="best" from="302116345" to="187679421#7"/>
    <person id="ped14" type="ped_pedestrian" depart="8.42">
        <walk edges="1112322334#1 1107792544#0 1107792544#1 1107792543#2 1107792550 1135992415#2 1107792551#0 1107792546#2 1110162235#1 1150556488#2 24836323#0 -617718993#0 24836297#8 24836297#6 24836297#5 24836297#4 24836297#3 24836297#2 24836297#1 24836297#0 -616921713#7 361349827#0 616920374#2 544680480#0 544680480#1 548010135 548010128#2 548010128#1 548010128#0 544680749 621038380#3 621038380#2 621038380#1 544680468 552454636#1 552454641 616920376#6 944470746#0 944470746#1 944470745 372325026 616927359#1 944470751#0 537587869 -854248813#0 -1135303298 -941489846 24850201#4 24850201#3 24850201#2 24850201#1 24850201#0"/>
    </person>
    <trip id="veh54" type="veh_passenger" depart="8.49" departLane="best" from="859448272#0" to="846008894#4"/>
    <trip id="veh55" type="veh_passenger" depart="8.64" departLane="best" from="24836327#0" to="569114956#4"/>
    <trip id="veh56" type="veh_passenger" depart="8.80" departLane="best" from="618043852#2" to="387049360#1"/>
    <trip id="veh57" type="veh_passenger" depart="8.96" departLane="best" departSpeed="max" from="618095644#0" to="361358029"/>
    <trip id="veh58" type="veh_passenger" depart="9.12" departLane="best" from="-1129779399" to="24847028#1"/>
    <trip id="veh59" type="veh_passenger" depart="9.27" departLane="best" from="-24859122#1" to="866463955#1"/>
    <trip id="veh60" type="veh_passenger" depart="9.43" departLane="best" from="24846907#0" to="1135302404"/>
    <person id="ped16" type="ped_pedestrian" depart="9.62">
        <walk edges="841108606#4 841108606#3 841108606#2 841108607 544678921#5 944470748 372325025 685755049#3 24859095#0 24859095#1 24859095#2 24859095#3"/>
    </person>
    <trip id="veh62" type="veh_passenger" depart="9.74" departLane="best" from="1161202416#0" to="24936149#6"/>
    <trip id="veh63" type="veh_passenger" depart="9.90" departLane="best" from="1135303297" to="618043848#7"/>
    <trip id="veh64" type="veh_passenger" depart="10.06" departLane="best" from="618043852#5" to="1174904588#1"/>
    <trip id="veh65" type="veh_passenger" depart="10.22" departLane="best" from="24859110#0" to="432043007#0"/>
    <person id="ped17" type="ped_pedestrian" depart="10.23">
        <walk edges="544680481#1 544680481#0 616920376#5 616920376#6 944470746#0 944470746#1 944470745 372325026 616927359#1 944470751#0 537587869 -854248813#0 -1135303298 -941489846 24850201#4 24850201#3 24850201#2 24850201#1 24850201#0 859478072#4 -24713969#3 -24713969#5 -24713863#0 -24713863#1"/>
    </person>
    <trip id="veh66" type="veh_passenger" depart="10.37" departLane="best" from="24836098#2" to="846008894#7"/>
    <trip id="veh67" type="veh_passenger" depart="10.53" departLane="best" from="24858131#3" to="24713969#0"/>
    <trip id="veh68" type="veh_passenger" depart="10.69" departLane="best" from="421567701#1" to="617831539#7"/>
    <person id="ped18" type="ped_pedestrian" depart="10.83">
        <walk edges="-854280389#0 -854280390 617718996#3 -438721545#4 -438721545#5 438721545#6 438721545#7 617887678#1 617887678#2 617887678#3 617887678#4 -897984836"/>
    </person>
    <trip id="veh69" type="veh_passenger" depart="10.84" departLane="best" from="24703741#5" to="24846907#13"/>
    <trip id="veh70" type="veh_passenger" depart="11.00" departLane="best" from="922697092#1" to="569114957#6"/>
    <trip id="veh71" type="veh_passenger" depart="11.16" departLane="best" from="24858649#1" to="352403336#1"/>
    <trip id="veh72" type="veh_passenger" depart="11.32" departLane="best" from="1168452026#1" to="24715534#10"/>
    <trip id="veh73" type="veh_passenger" depart="11.47" departLane="best" from="24849974#5" to="4818253#3"/>
    <trip id="veh74" type="veh_passenger" depart="11.63" departLane="best" from="24715534#12" to="24715388"/>
    <trip id="veh75" type="veh_passenger" depart="11.79" departLane="best" from="1138585950#0" to="569114954#9"/>
    <trip id="veh76" type="veh_passenger" depart="11.94" departLane="best" from="24715534#11" to="856116497#4"/>
    <person id="ped20" type="ped_pedestrian" depart="12.03">
        <walk edges="-889137476 889137476"/>
    </person>
    <trip id="veh77" type="veh_passenger" depart="12.10" departLane="best" from="846008893#2" to="1138585950#1"/>
    <trip id="veh78" type="veh_passenger" depart="12.26" departLane="best" from="24715534#2" to="616813097#5"/>
    <trip id="veh80" type="veh_passenger" depart="12.57" departLane="best" from="866466953#2" to="4780792#0"/>
    <person id="ped21" type="ped_pedestrian" depart="12.63">
        <walk edges="4818253#4 -1021248528#1 -1021248528#0 -187679421#7 -187679421#6 -187679421#5 -187679421#4 -187679421#3 -187679421#1 -1135302411#0 -616921713#15 -616921713#14 -616921713#13 -616921713#12 616921713#11 24836610 361358030#3 361358030#4 361358030#5 361358030#6 361358030#7"/>
    </person>
    <trip id="veh82" type="veh_passenger" depart="12.89" departLane="best" departSpeed="max" from="618106741#0" to="24689815#1"/>
    <trip id="veh83" type="veh_passenger" depart="13.04" departLane="best" from="1162728917#1" to="24858500#0"/>
    <trip id="veh84" type="veh_passenger" depart="13.20" departLane="best" from="24858131#3" to="24859096#0"/>
    <person id="ped22" type="ped_pedestrian" depart="13.23">
        <walk edges="-616921713#4 616921713#5 361349340 -24836297#1 -24836297#2 361358030#7 -361358030#6 580558029 580558028#1"/>
    </person>
    <trip id="veh85" type="veh_passenger" depart="13.36" departLane="best" from="617887678#1" to="616921713#1"/>
    <trip id="veh86" type="veh_passenger" depart="13.52" departLane="best" from="904261096#2" to="1162728917#3"/>
    <trip id="veh87" type="veh_passenger" depart="13.67" departLane="best" from="24850778#2" to="24850065#2"/>
    <trip id="veh88" type="veh_passenger" depart="13.83" departLane="best" from="846008893#4" to="24715603#0"/>
    <person id="ped23" type="ped_pedestrian" depart="13.84">
        <walk edges="-616813097#1 616813097#0 -24836297#4 -24836297#5 -24836297#6 -24836297#8 -617718993#1 897978428 1118163641#2"/>
    </person>
    <trip id="veh89" type="veh_passenger" depart="13.99" departLane="best" from="220844298#0" to="685755040#1"/>
    <trip id="veh90" type="veh_passenger" depart="14.14" departLane="best" from="24858131#2" to="24836247#2"/>
    <trip id="veh91" type="veh_passenger" depart="14.30" departLane="best" from="24715534#9" to="859882523#0"/>
    <trip id="veh92" type="veh_passenger" depart="14.46" departLane="best" from="24858698#4" to="846008893#0"/>
    <trip id="veh93" type="veh_passenger" depart="14.62" departLane="best" from="432046500#1" to="1114968649"/>
    <trip id="veh94" type="veh_passenger" depart="14.77" departLane="best" from="932642940" to="688753795#7"/>
    <trip id="veh96" type="veh_passenger" depart="15.09" departLane="best" from="79431129" to="176444016#6"/>
    <trip id="veh97" type="veh_passenger" depart="15.24" departLane="best" departSpeed="max" from="24936503#0" to="24713969#2"/>
    <trip id="veh98" type="veh_passenger" depart="15.40" departLane="best" from="24850772#8" to="1135302404"/>
    <trip id="veh99" type="veh_passenger" depart="15.56" departLane="best" from="24850271#7" to="904261096#4"/>
    <person id="ped26" type="ped_pedestrian" depart="15.64">
        <walk edges="-854280392 -854280390 -854280389#0 -854280388 -24715388 -354652706#0 -354652706#1 -887431154#2 -887431154#1 -1172193011 -1162728926 519437784 432043012#1 432043007#2 432043003#1 457847968 24715664#0 -144114924"/>
    </person>
    <trip id="veh101" type="veh_passenger" depart="15.87" departLane="best" from="24859071" to="24858131#3"/>
    <trip id="veh102" type="veh_passenger" depart="16.03" departLane="best" departSpeed="max" from="903898684" to="932642939#0"/>
    <trip id="veh103" type="veh_passenger" depart="16.19" departLane="best" from="438721545#0" to="617718973#3"/>
    <trip id="veh104" type="veh_passenger" depart="16.34" departLane="best" from="124506586#3" to="24836323#6"/>
    <trip id="veh106" type="veh_passenger" depart="16.66" departLane="best" from="425206430#2" to="618028621#0"/>
    <trip id="veh108" type="veh_passenger" depart="16.97" departLane="best" from="302116346#0" to="803453729"/>
    <trip id="veh109" type="veh_passenger" depart="17.13" departLane="best" from="124506586#6" to="904172411#0"/>
    <trip id="veh110" type="veh_passenger" depart="17.29" departLane="best" from="1150556478#0" to="235361237#0"/>
    <trip id="veh111" type="veh_passenger" depart="17.44" departLane="best" from="516714775#3" to="616921713#11"/>
    <trip id="veh112" type="veh_passenger" depart="17.60" departLane="best" from="24715534#15" to="1168452026#1"/>
    <trip id="veh113" type="veh_passenger" depart="17.76" departLane="best" from="854280393" to="24715534#8"/>
    <trip id="veh114" type="veh_passenger" depart="17.92" departLane="best" from="516714775#2" to="569114953#0"/>
    <person id="ped30" type="ped_pedestrian" depart="18.05">
        <walk edges="24857892#0 1186037615#2 1186037615#3 1186037615#4 1186037615#5 1186037615#6 1138585950#1 -1138585950#0 -1168452026#1 -1168452026#0 -887431154#2 -887431154#1 -1172193011 24715665#2 24715665#1 1186027598#3 1186027598#2 1162862269#0 -4818253#4 -4818253#3 24849974#1 24849974#2 24849974#3 24849974#4 24849974#5 616927361 421567701#0 -854248813#0 -1135303298 24859099#6 -887834283"/>
    </person>
    <trip id="veh115" type="veh_passenger" depart="18.07" departLane="best" from="24857826#1" to="4780792#8"/>
    <trip id="veh116" type="veh_passenger" depart="18.23" departLane="best" from="359438448#2" to="866466953#2"/>
    <trip id="veh117" type="veh_passenger" depart="18.39" departLane="best" from="24703741#8" to="617638515#3"/>
    <trip id="veh118" type="veh_passenger" depart="18.54" departLane="best" from="24715534#3" to="24850772#2"/>
    <person id="ped31" type="ped_pedestrian" depart="18.65">
        <walk edges="24859131#1 24850201#3 24850201#4 -941489846 -1135303298 -854248813#0 537587869 944470751#0 616927359#1 372325026 944470745 944470746#1 944470746#0 616920376#6 552454641 552454636#1 544680468 621038380#1 621038380#2 621038380#3 544680749 548010128#0 548010128#1 548010128#2 548010128#3 548010145 621037786#6 621037786#5 621037786#4 621037789 580564317#2 580564319 616920375#3 944470755 616921713#5 616921713#4 456118122#13 859448270#0 859448270#1 531793099#1 859731796#1"/>
    </person>
    <trip id="veh119" type="veh_passenger" depart="18.70" departLane="best" from="616921713#12" to="24836487#1"/>
    <trip id="veh120" type="veh_passenger" depart="18.86" departLane="best" from="24846907#4" to="618028623#12"/>
    <trip id="veh121" type="veh_passenger" depart="19.02" departLane="best" from="1150556472" to="24859087#2"/>
    <trip id="veh122" type="veh_passenger" depart="19.17" departLane="best" from="1150556473" to="24713969#1"/>
    <person id="ped32" type="ped_pedestrian" depart="19.25">
        <walk edges="1150556492#0 1150556492#1 1107792542#5 1107792542#6 1150556488#2 24836323#0 -617718993#0 24836297#8 -854044801#6 -854044801#7 531793103#3 532585992 -854044801#12"/>
    </person>
    <trip id="veh124" type="veh_passenger" depart="19.49" departLane="best" from="24850243#2" to="144114924"/>
    <trip id="veh125" type="veh_passenger" depart="19.64" departLane="best" from="688753795#6" to="616927355#0"/>
    <trip id="veh126" type="veh_passenger" depart="19.80" departLane="best" from="569114952#1" to="916017996#0"/>
    <person id="ped33" type="ped_pedestrian" depart="19.85">
        <walk edges="977414060#1 1191236876#1 1191236877 859470133 -24858131#3 -124179028#6 -124179028#5 -124179028#4 -124179028#3 -124179028#2 -124179028#1 1096409932#1 124179032#1 -616921713#14 -616921713#15 4780781#0 4780781#1 4780781#2 91976750#0 24715603#3"/>
    </person>
    <trip id="veh127" type="veh_passenger" depart="19.96" departLane="best" from="616812020#1" to="24850201#2"/>
    <trip id="veh128" type="veh_passenger" depart="20.12" departLane="best" from="685755040#4" to="24836487#0"/>
    <trip id="veh129" type="veh_passenger" depart="20.27" departLane="best" from="616813097#4" to="866735729"/>
    <trip id="veh130" type="veh_passenger" depart="20.43" departLane="best" departSpeed="max" from="1195939076#0" to="1164605692#1"/>
    <person id="ped34" type="ped_pedestrian" depart="20.45">
        <walk edges="-24850201#3 -24850201#2 -24850201#1 -24850201#0 -859478072#4 -24713969#2 -24713969#1"/>
    </person>
    <trip id="veh131" type="veh_passenger" depart="20.59" departLane="best" departSpeed="max" from="1162919302#0" to="432046500#0"/>
    <trip id="veh132" type="veh_passenger" depart="20.74" departLane="best" from="24836172#0" to="517139709#3"/>
    <trip id="veh133" type="veh_passenger" depart="20.90" departLane="best" from="617718973#5" to="24703903#3"/>
    <person id="ped35" type="ped_pedestrian" depart="21.05">
        <walk edges="618043852#4 618043852#5 4780792#1 -4780792#2 -4780792#3 -354652706#0 -354652706#1 1186027584#0"/>
    </person>
    <trip id="veh134" type="veh_passenger" depart="21.06" departLane="best" from="569114956#5" to="24836098#3"/>
    <trip id="veh135" type="veh_passenger" depart="21.22" departLane="best" from="24939830" to="856116497#4"/>
    <trip id="veh136" type="veh_passenger" depart="21.37" departLane="best" from="743234927#2" to="1161952787#0"/>
    <trip id="veh137" type="veh_passenger" depart="21.53" departLane="best" from="24858131#3" to="24836247#0"/>
    <person id="ped36" type="ped_pedestrian" depart="21.66">
        <walk edges="-24836297#6 -854044801#5 -854044801#4 -854044801#3 -854044801#2 -854044801#1 24703903#5 24703903#6 24703903#7 -618028619#3 -618028619#2 -618028619#1 -885100270 1133030673#1"/>
    </person>
    <trip id="veh138" type="veh_passenger" depart="21.69" departLane="best" from="24836301" to="618043858#2"/>
    <trip id="veh139" type="veh_passenger" depart="21.84" departLane="best" from="569114957#0" to="24836098#2"/>
    <trip id="veh140" type="veh_passenger" depart="22.00" departLane="best" from="618028612#1" to="432043007#2"/>
    <trip id="veh141" type="veh_passenger" depart="22.16" departLane="best" from="24858164#4" to="-24850203#1"/>
    <person id="ped37" type="ped_pedestrian" depart="22.26">
        <walk edges="954684514#3 954684514#2 954684511 -516714775#2 -516714775#1 516714775#0 474875027#1 24849973#2 621270374#0 1087581873 464338438#1 221909363#8 221909363#1 1186027592#1 1168452026#0 354652706#1 1162734719 -24715388 24846907#12"/>
    </person>
    <trip id="veh142" type="veh_passenger" depart="22.32" departLane="best" from="1150556476#0" to="854269186#1"/>
    <trip id="veh143" type="veh_passenger" depart="22.47" departLane="best" from="-856116497#2" to="425206429"/>
    <trip id="veh144" type="veh_passenger" depart="22.63" departLane="best" from="688753795#7" to="4780792#7"/>
    <trip id="veh145" type="veh_passenger" depart="22.79" departLane="best" from="1195939076#8" to="24846907#11"/>
    <person id="ped38" type="ped_pedestrian" depart="22.86">
        <walk edges="925176211 -438721545#4 -438721545#3 438721545#2 438721545#1 438721545#0 4780792#2 -4780792#1 -4780792#0 -1162729330#0 24847028#2 4780781#3 4780781#2 4780781#1 4780781#0 -616921713#15 -616921713#14 -616921713#13 623558865 1096409934 992941277#1 544680485 621038379#5 621038379#4 621038379#3 544680748 548010128#1 548010128#0 548010128#7 841108611 841108606#3 841108606#2"/>
    </person>
    <trip id="veh146" type="veh_passenger" depart="22.94" departLane="best" from="24846907#1" to="616927355#0"/>
    <trip id="veh147" type="veh_passenger" depart="23.10" departLane="best" from="24850203#0" to="845518111#1"/>
    <trip id="veh148" type="veh_passenger" depart="23.26" departLane="best" from="856041979#0" to="24713863#1"/>
    <trip id="veh149" type="veh_passenger" depart="23.42" departLane="best" from="24715534#9" to="1162729338#1"/>
    <person id="ped39" type="ped_pedestrian" depart="23.46">
        <walk edges="-1135303298 24859099#6 24859099#5 24859099#4 24859099#3 24859099#2 24859099#1 24859095#2 24859095#1 24859094#4 616927356#0 616927356#1 302116343#0 685903218#8 569114952#1 569114945 569114953#0"/>
    </person>
    <trip id="veh150" type="veh_passenger" depart="23.57" departLane="best" from="24850888#1" to="569114953#1"/>
    <trip id="veh151" type="veh_passenger" depart="23.73" departLane="best" from="124506586#2" to="866463956#1"/>
    <trip id="veh152" type="veh_passenger" depart="23.89" departLane="best" from="846008894#1" to="904259094"/>
    <trip id="veh153" type="veh_passenger" depart="24.04" departLane="best" departSpeed="max" from="656312989" to="854269186#0"/>
    <trip id="veh154" type="veh_passenger" depart="24.20" departLane="best" from="617718993#0" to="617887678#4"/>
    <trip id="veh155" type="veh_passenger" depart="24.36" departLane="best" from="24847791#1" to="866465092"/>
    <trip id="veh156" type="veh_passenger" depart="24.52" departLane="best" from="618106730#1" to="846008893#3"/>
    <person id="ped41" type="ped_pedestrian" depart="24.66">
        <walk edges="-889116248 -187679421#5 -187679421#6 -187679421#7 -1021248528#0 -1021248528#1 1162862269#0 1186027598#2 1186027598#3 24715665#1 24715665#2 -1172193011 -887431154#1 -887431154#2 354652706#1 1162734719 -4780792#4 -4780792#5 -4780792#6 -4780792#7 -4780792#8 4780792#9 4780792#10 4780792#11"/>
    </person>
    <trip id="veh157" type="veh_passenger" depart="24.67" departLane="best" departSpeed="max" from="656312989" to="24836098#5"/>
    <trip id="veh158" type="veh_passenger" depart="24.83" departLane="best" from="618098747#4" to="1163707423"/>
    <trip id="veh159" type="veh_passenger" depart="24.99" departLane="best" from="24715388" to="685755040#0"/>
    <trip id="veh160" type="veh_passenger" depart="25.14" departLane="best" from="24859094#4" to="24836611"/>
    <trip id="veh161" type="veh_passenger" depart="25.30" departLane="best" from="618098762#1" to="24715534#12"/>
    <trip id="veh163" type="veh_passenger" depart="25.62" departLane="best" from="569114957#4" to="24850772#7"/>
    <trip id="veh164" type="veh_passenger" depart="25.77" departLane="best" from="904261096#0" to="361358030#8"/>
    <person id="ped43" type="ped_pedestrian" depart="25.87">
        <walk edges="1191236877 685755049#0 685755049#1 685755049#2 685755049#3 685755049#4 616927356#0 531799968#0 531799963 531799965#0 531799965#1 531799965#2 531799965#3 531799965#4 531799965#5 531799965#6 -375576693 517139709#0 517139709#1 -517139709#2 -1026269351#1 1026269351#2 896978139"/>
    </person>
    <trip id="veh165" type="veh_passenger" depart="25.93" departLane="best" from="866731820" to="1164605692#1"/>
    <trip id="veh166" type="veh_passenger" depart="26.09" departLane="best" from="904256738" to="187679421#7"/>
    <trip id="veh167" type="veh_passenger" depart="26.24" departLane="best" from="903950051" to="24836098#4"/>
    <trip id="veh168" type="veh_passenger" depart="26.40" departLane="best" from="1162919372" to="24858500#5"/>
    <person id="ped44" type="ped_pedestrian" depart="26.47">
        <walk edges="854044801#12 532585992 531793102 531793099#1 859448270#1 859448270#0 456118122#13 616921713#4 616921713#5 944470755 616920375#3 580564319 580564317#2 621037789 621037786#3 621037786#2 621037787 544680477#4 544680477#1 992941262 632251755#6 632251755#1 544680474 841108606#2 841108607 544678921#5 944470748 372325025 685755049#3 24859095#0 24859095#1 24859095#2 24859095#3 -4818259#6 -4818259#5 -4818259#4 4818259#3 887834284 -887834284"/>
    </person>