<?xml version="1.0" encoding="UTF-8"?>

<!-- generated on 2023-08-10 12:40:12.688831 by osmWebWizard.py v1_18_0+0000-03ecfdea036
<configuration>
    <net-file value="C:\Users\ST\Desktop\2023-08-10-12-40-03\osm.net.xml.gz"/>
    <output-trip-file value="C:\Users\ST\Desktop\2023-08-10-12-40-03\osm.pedestrian.trips.xml"/>
    <route-file value="C:\Users\ST\Desktop\2023-08-10-12-40-03\osm.pedestrian.rou.xml"/>
    <pedestrians value="True"/>
    <prefix value="ped"/>
    <vehicle-class value="pedestrian"/>
    <fringe-factor value="1.01"/>
    <max-distance value="2000.0"/>
    <end value="360.0"/>
    <insertion-density value="31.0"/>
</configuration>
-->

<!-- generated on 2023-08-10 12:40:12 by Eclipse SUMO duarouter Version 1.18.0
<configuration xmlns:xsi="http://www.w3.org/2001/XMLSchema-instance" xsi:noNamespaceSchemaLocation="http://sumo.dlr.de/xsd/duarouterConfiguration.xsd">

    <input>
        <net-file value="C:\Users\ST\Desktop\2023-08-10-12-40-03\osm.net.xml.gz"/>
        <route-files value="C:\Users\ST\Desktop\2023-08-10-12-40-03\osm.pedestrian.trips.xml"/>
    </input>

    <output>
        <output-file value="C:\Users\ST\Desktop\2023-08-10-12-40-03\osm.pedestrian.rou.xml"/>
        <alternatives-output value="NUL"/>
    </output>

    <time>
        <begin value="0.0"/>
        <end value="360.0"/>
    </time>

    <report>
        <no-warnings value="true"/>
        <ignore-errors value="true"/>
        <no-step-log value="true"/>
    </report>

</configuration>
-->

<routes xmlns:xsi="http://www.w3.org/2001/XMLSchema-instance" xsi:noNamespaceSchemaLocation="http://sumo.dlr.de/xsd/routes_file.xsd">
    <vType id="ped_pedestrian" vClass="pedestrian"/>
    <person id="ped0" type="ped_pedestrian" depart="0.00">
        <walk edges="4780792#0 4780792#1 4780792#2 4780792#3 4780792#4 4780792#5 4780792#6 4780792#7 4780792#8 4780792#9 24866679 24846907#8 617831539#6 617831539#7 1163985762#0 -1163985762#1"/>
    </person>
    <person id="ped3" type="ped_pedestrian" depart="1.80">
        <walk edges="859455980#0 -616921713#4 -616921713#5 944470755 616920375#3 580564319 580564317#2 621037789 621037786#4 621037786#5 621037786#6 548010145 548010128#3 548010128#2 548010128#1 548010128#0 544680749 621038380#3 621038380#2 621038380#1 544680468 552454636#1 552454641 616920376#6 944470746#0 944470746#1 944470745 372325026 616927359#1 944470751#0 537587869 -854248813#0 854248814 -24850172#6 -24850172#5 -24850172#4 -24850172#3 -24850172#2"/>
    </person>
    <person id="ped5" type="ped_pedestrian" depart="3.01">
        <walk edges="-854044801#1 -854044801#0 -1135302405 1135302406 1135302408 846008895 1135302411#0 187679421#1 187679421#3 187679421#4 -187679421#5 -187679421#6 -187679421#7 -856041980#2 -24713969#0 24713969#1 24713969#2 24713969#3 24713969#5"/>
    </person>
    <person id="ped6" type="ped_pedestrian" depart="3.61">
        <walk edges="4818259#0 -941489846 -1135303298 24850149#0"/>
    </person>
    <person id="ped8" type="ped_pedestrian" depart="4.81">
        <walk edges="619140707#0 1186037619#3 4780792#13 4780792#12 4780792#11 4780792#10 4780792#9 4780792#8 4780792#7 4780792#6 4780792#5 4780792#4 4780792#3 4780792#2 4780792#1 4780792#0 1162729338#1 1162729338#0 1135302406 1135302404 618045930#2 -618045930#1 -618045930#0 -1135302402 -618028619#4 -618028619#3 -618028619#2 -618028619#1 -885100270 -1133030673#0"/>
    </person>
    <person id="ped9" type="ped_pedestrian" depart="5.41">
        <walk edges="1095179480#2 1095179480#1 1095179480#0 1095179477#6 1095179477#5 685903218#10 685903218#9 685903218#8 569114952#1 569114945 569114953#0 -569114953#0"/>
    </person>
    <person id="ped10" type="ped_pedestrian" depart="6.02">
        <walk edges="897963864#1 352403336#2 352403336#3 352403336#4 618045930#0 618045930#1 618045930#2 1135302404 1135302406 1135302408 846008895 -616921713#15 -616921713#14 -616921713#13 623558865 1096409934 992941277#1 544680485 621038379#6 621038379#1 621038383 621038382#3 621038382#4 621038384 621038380#4 621038380#3 544680469 841108606#5 841108606#1 841108607 544678921#5 944470748 372325025 685755049#3 24859095#0 24859094#3 24859094#2 24859094#1 1095179480#0 1095179479#6 1095179479#5 1095179479#4 1095179479#3 1095179479#2 1095179479#1"/>
    </person>
    <person id="ped12" type="ped_pedestrian" depart="7.22">
        <walk edges="685903218#12 1095179479#5 1095179479#6 1095179480#0 24859094#1 24859094#2 24859094#3 24859095#0 685755049#3 372325025 944470748 544678921#5 841108607 841108606#1 841108606#5 544680469 621038380#3 621038380#4 621038384 621038382#4 621038382#3 621038383 621038379#1 621038379#6 544680485 992941277#1 1096409934 623558865 -616921713#13 -616921713#14 -616921713#15 4780781#0 4780781#1 4780781#2 4780781#3 4780781#4 4780781#5 885612152#1 885612151#0 885612151#1 1186027596 -1172193011 -887431154#1 -887431154#2 -1168452026#0 -1168452026#1 -1138585950#0 -1138585950#1 1186037612#1 1186037612#2 1186037612#3 24850912#4 354652710#0"/>
    </person>
    <person id="ped13" type="ped_pedestrian" depart="7.82">
        <walk edges="24847759#1 846008893#2 846008893#1 846008893#0 1162729330#2 1162729330#1 1162729330#0 24847028#2 4780781#3 4780781#2 4780781#1 4780781#0 -616921713#15 -616921713#14 -616921713#13 623558865 1096409934 992941277#1 544680485 621038379#6 621038379#1 621038383 621038382#3 621038382#4 621038384 621038380#4 621038380#3 544680469 841108606#5 841108606#1 841108607 544678921#5 944470748 372325025 685755049#3 24859095#0 24859094#3 24859094#2 24859094#1 1095179480#0 1095179477#6 1095179477#5 1095179477#4 1095179477#3 1095179477#2 1095179477#1 1095179477#0 1095179478#1 24858698#6 24858698#5 -929664770 929664772"/>
    </person>
    <person id="ped14" type="ped_pedestrian" depart="8.42">
        <walk edges="1112322334#1 1107792544#0 1107792544#1 1107792543#2 1107792550 1135992415#2 1107792551#0 1107792546#2 1110162235#1 1150556488#2 24836323#0 -617718993#0 24836297#8 24836297#6 24836297#5 24836297#4 24836297#3 24836297#2 24836297#1 24836297#0 -616921713#7 361349827#0 616920374#2 544680480#0 544680480#1 548010135 548010128#2 548010128#1 548010128#0 544680749 621038380#3 621038380#2 621038380#1 544680468 552454636#1 552454641 616920376#6 944470746#0 944470746#1 944470745 372325026 616927359#1 944470751#0 537587869 -854248813#0 -1135303298 -941489846 24850201#4 24850201#3 24850201#2 24850201#1 24850201#0"/>
    </person>
    <person id="ped16" type="ped_pedestrian" depart="9.62">
        <walk edges="841108606#4 841108606#3 841108606#2 841108607 544678921#5 944470748 372325025 685755049#3 24859095#0 24859095#1 24859095#2 24859095#3"/>
    </person>
    <person id="ped17" type="ped_pedestrian" depart="10.23">
        <walk edges="544680481#1 544680481#0 616920376#5 616920376#6 944470746#0 944470746#1 944470745 372325026 616927359#1 944470751#0 537587869 -854248813#0 -1135303298 -941489846 24850201#4 24850201#3 24850201#2 24850201#1 24850201#0 859478072#4 -24713969#3 -24713969#5 -24713863#0 -24713863#1"/>
    </person>
    <person id="ped18" type="ped_pedestrian" depart="10.83">
        <walk edges="-854280389#0 -854280390 617718996#3 -438721545#4 -438721545#5 438721545#6 438721545#7 617887678#1 617887678#2 617887678#3 617887678#4 -897984836"/>
    </person>
    <person id="ped20" type="ped_pedestrian" depart="12.03">
        <walk edges="-889137476 889137476"/>
    </person>
    <person id="ped21" type="ped_pedestrian" depart="12.63">
        <walk edges="4818253#4 -1021248528#1 -1021248528#0 -187679421#7 -187679421#6 -187679421#5 -187679421#4 -187679421#3 -187679421#1 -1135302411#0 -616921713#15 -616921713#14 -616921713#13 -616921713#12 616921713#11 24836610 361358030#3 361358030#4 361358030#5 361358030#6 361358030#7"/>
    </person>
    <person id="ped22" type="ped_pedestrian" depart="13.23">
        <walk edges="-616921713#4 616921713#5 361349340 -24836297#1 -24836297#2 361358030#7 -361358030#6 580558029 580558028#1"/>
    </person>
    <person id="ped23" type="ped_pedestrian" depart="13.84">
        <walk edges="-616813097#1 616813097#0 -24836297#4 -24836297#5 -24836297#6 -24836297#8 -617718993#1 897978428 1118163641#2"/>
    </person>
    <person id="ped26" type="ped_pedestrian" depart="15.64">
        <walk edges="-854280392 -854280390 -854280389#0 -854280388 -24715388 -354652706#0 -354652706#1 -887431154#2 -887431154#1 -1172193011 -1162728926 519437784 432043012#1 432043007#2 432043003#1 457847968 24715664#0 -144114924"/>
    </person>
    <person id="ped30" type="ped_pedestrian" depart="18.05">
        <walk edges="24857892#0 1186037615#2 1186037615#3 1186037615#4 1186037615#5 1186037615#6 1138585950#1 -1138585950#0 -1168452026#1 -1168452026#0 -887431154#2 -887431154#1 -1172193011 24715665#2 24715665#1 1186027598#3 1186027598#2 1162862269#0 -4818253#4 -4818253#3 24849974#1 24849974#2 24849974#3 24849974#4 24849974#5 616927361 421567701#0 -854248813#0 -1135303298 24859099#6 -887834283"/>
    </person>
    <person id="ped31" type="ped_pedestrian" depart="18.65">
        <walk edges="24859131#1 24850201#3 24850201#4 -941489846 -1135303298 -854248813#0 537587869 944470751#0 616927359#1 372325026 944470745 944470746#1 944470746#0 616920376#6 552454641 552454636#1 544680468 621038380#1 621038380#2 621038380#3 544680749 548010128#0 548010128#1 548010128#2 548010128#3 548010145 621037786#6 621037786#5 621037786#4 621037789 580564317#2 580564319 616920375#3 944470755 616921713#5 616921713#4 456118122#13 859448270#0 859448270#1 531793099#1 859731796#1"/>
    </person>
    <person id="ped32" type="ped_pedestrian" depart="19.25">
        <walk edges="1150556492#0 1150556492#1 1107792542#5 1107792542#6 1150556488#2 24836323#0 -617718993#0 24836297#8 -854044801#6 -854044801#7 531793103#3 532585992 -854044801#12"/>
    </person>
    <person id="ped33" type="ped_pedestrian" depart="19.85">
        <walk edges="977414060#1 1191236876#1 1191236877 859470133 -24858131#3 -124179028#6 -124179028#5 -124179028#4 -124179028#3 -124179028#2 -124179028#1 1096409932#1 124179032#1 -616921713#14 -616921713#15 4780781#0 4780781#1 4780781#2 91976750#0 24715603#3"/>
    </person>
    <person id="ped34" type="ped_pedestrian" depart="20.45">
        <walk edges="-24850201#3 -24850201#2 -24850201#1 -24850201#0 -859478072#4 -24713969#2 -24713969#1"/>
    </person>
    <person id="ped35" type="ped_pedestrian" depart="21.05">
        <walk edges="618043852#4 618043852#5 4780792#1 -4780792#2 -4780792#3 -354652706#0 -354652706#1 1186027584#0"/>
    </person>
    <person id="ped36" type="ped_pedestrian" depart="21.66">
        <walk edges="-24836297#6 -854044801#5 -854044801#4 -854044801#3 -854044801#2 -854044801#1 24703903#5 24703903#6 24703903#7 -618028619#3 -618028619#2 -618028619#1 -885100270 1133030673#1"/>
    </person>
    <person id="ped37" type="ped_pedestrian" depart="22.26">
        <walk edges="954684514#3 954684514#2 954684511 -516714775#2 -516714775#1 516714775#0 474875027#1 24849973#2 621270374#0 1087581873 464338438#1 221909363#8 221909363#1 1186027592#1 1168452026#0 354652706#1 1162734719 -24715388 24846907#12"/>
    </person>
    <person id="ped38" type="ped_pedestrian" depart="22.86">
        <walk edges="925176211 -438721545#4 -438721545#3 438721545#2 438721545#1 438721545#0 4780792#2 -4780792#1 -4780792#0 -1162729330#0 24847028#2 4780781#3 4780781#2 4780781#1 4780781#0 -616921713#15 -616921713#14 -616921713#13 623558865 1096409934 992941277#1 544680485 621038379#5 621038379#4 621038379#3 544680748 548010128#1 548010128#0 548010128#7 841108611 841108606#3 841108606#2"/>
    </person>
    <person id="ped39" type="ped_pedestrian" depart="23.46">
        <walk edges="-1135303298 24859099#6 24859099#5 24859099#4 24859099#3 24859099#2 24859099#1 24859095#2 24859095#1 24859094#4 616927356#0 616927356#1 302116343#0 685903218#8 569114952#1 569114945 569114953#0"/>
    </person>
    <person id="ped41" type="ped_pedestrian" depart="24.66">
        <walk edges="-889116248 -187679421#5 -187679421#6 -187679421#7 -1021248528#0 -1021248528#1 1162862269#0 1186027598#2 1186027598#3 24715665#1 24715665#2 -1172193011 -887431154#1 -887431154#2 354652706#1 1162734719 -4780792#4 -4780792#5 -4780792#6 -4780792#7 -4780792#8 4780792#9 4780792#10 4780792#11"/>
    </person>
    <person id="ped43" type="ped_pedestrian" depart="25.87">
        <walk edges="1191236877 685755049#0 685755049#1 685755049#2 685755049#3 685755049#4 616927356#0 531799968#0 531799963 531799965#0 531799965#1 531799965#2 531799965#3 531799965#4 531799965#5 531799965#6 -375576693 517139709#0 517139709#1 -517139709#2 -1026269351#1 1026269351#2 896978139"/>
    </person>
    <person id="ped44" type="ped_pedestrian" depart="26.47">
        <walk edges="854044801#12 532585992 531793102 531793099#1 859448270#1 859448270#0 456118122#13 616921713#4 616921713#5 944470755 616920375#3 580564319 580564317#2 621037789 621037786#3 621037786#2 621037787 544680477#4 544680477#1 992941262 632251755#6 632251755#1 544680474 841108606#2 841108607 544678921#5 944470748 372325025 685755049#3 24859095#0 24859095#1 24859095#2 24859095#3 -4818259#6 -4818259#5 -4818259#4 4818259#3 887834284 -887834284"/>
    </person>
    <person id="ped45" type="ped_pedestrian" depart="27.07">
        <walk edges="24703903#6 -24703903#5 -854044801#0 -1135302405 -24846907#15 -24846907#14 -24846907#13 -24846907#12 -24846907#11 24846907#10 24846907#9 24846907#8 -617831539#5"/>
    </person>
    <person id="ped46" type="ped_pedestrian" depart="27.67">
        <walk edges="885612151#0 885612152#1 856041980#0 618043852#6 618043852#5 618043852#4 618043852#3 -618043852#2 617718996#0 24847759#2 846008893#3"/>
    </person>
    <person id="ped47" type="ped_pedestrian" depart="28.27">
        <walk edges="-940583788 -904255517 -903255028 -617718973#4 -617718973#3 617718981#1 617718981#2 617718981#3 -618028613#10 -618028613#9 -618028613#8 -618028613#6 -618028613#5 904261096#5 904261096#4 904261096#3 904261096#2 904261096#1 904261096#0 24713393 -352403336#0 -352403336#1 -352403336#2 -352403336#3 -1135302402 -618045930#0 -618045930#1 618045930#2 1135302404 1135302406 1135302408 24715603#3 24715603#2 24715603#1 4818258#0 4780781#5"/>
    </person>
    <person id="ped49" type="ped_pedestrian" depart="29.48">
        <walk edges="616927352#1 531799965#6 531799965#5 531799965#4 531799965#3 531799965#2 531799965#1 531799965#0 531799963 531799968#0 616927356#0 685755049#4 685755049#3 685755049#2 685755049#1 685755049#0 616927359#3 616927359#2 616927359#1 616927359#0 616927361 24849974#5 24849974#4 24849974#3 24849974#2 24849974#1 24849974#0"/>
    </person>
    <person id="ped50" type="ped_pedestrian" depart="30.08">
        <walk edges="617887678#2 617887678#3 618043852#0 -618043852#1 -618043852#2 -618043852#3 -618043852#4 24846907#14"/>
    </person>
    <person id="ped51" type="ped_pedestrian" depart="30.68">
        <walk edges="-1021248528#1 4818253#4 4818253#3 24849974#1 24849974#2 24849974#3 24849974#4 24849974#5 616927361 421567701#0 -854248813#0 618106730#6 618106730#5 618106730#4 618106730#3 618106730#2 618106730#1 24859094#3 24859094#2 24859094#1 1095179480#0 1095179479#6 1095179479#5 685903218#13 1095176722#0"/>
    </person>
    <person id="ped53" type="ped_pedestrian" depart="31.88">
        <walk edges="854044801#6 24836297#6 24836297#5 24836297#4 24836297#3 24836297#2 24836297#1 24836297#0 -616921713#7 361349827#0 616920374#1 544680463 621037786#5 621037786#6 621037786#1 621037787 544680477#4 544680477#1 992941262 632251755#6 632251755#1"/>
    </person>
    <person id="ped55" type="ped_pedestrian" depart="33.08">
        <walk edges="-24846907#10 24846907#11 24715388 1162734719 354652706#1 -887431154#2 -887431154#1 -1172193011 1186027596 885612151#1 885612151#0 885612152#1 4780781#5 4780781#4 4780781#3 4780781#2 4780781#1 4780781#0 -616921713#15 -616921713#14 -616921713#13 623558865 1096409934 992941277#1 544680485 621038379#5 621038379#4 621038379#3 544680748 548010128#2 548010128#3 548010128#4 548010128#5 544680478 632251755#1 632251755#2 632251755#3 544680475 580564310#1 580564312 616920375#0 621037694 -569114957#5 -569114957#6 -569114952#0 685903218#7 685903218#6 685903218#5 616927348#1 616927348#2"/>
    </person>
    <person id="ped56" type="ped_pedestrian" depart="33.69">
        <walk edges="616927359#3 616927359#2 616927359#1 616927359#0 616927361 24849974#5 24849974#4 24849974#3 24849974#2 24849974#1 -4818253#3 -4818253#4 1162862269#0 1186027598#2 1186027598#3 24715665#1 24715665#2 1172193011 -437627508#0 -437627508#1 -1161808793 -438721545#0 -438721545#1 -438721545#2 -438721545#3 -438721545#4"/>
    </person>
    <person id="ped57" type="ped_pedestrian" depart="34.29">
        <walk edges="183253582#0 569114956#4 569114956#3 569114956#2 569114956#1 616927352#1 531799965#6 531799965#5 531799965#4 531799965#3 531799965#2 531799965#1 531799965#0 531799963 531799968#0 616927356#0 24859094#4 24859094#3 -24859099#1 -24859099#2 -24859099#3 -24859099#4 -24859099#5 -24859099#6 24850172#6 24850172#5 24850172#4 24850172#3 24850172#2"/>
    </person>
    <person id="ped59" type="ped_pedestrian" depart="35.49">
        <walk edges="1186027586 1185813521#2 1186027588#1 354652706#1 -887431154#2 -887431154#1 -1172193011 24715665#2 24715665#1 1186027598#3 1186027598#2 1162862269#0 -4818253#4 -4818253#3 -4818253#2 -4818253#1 -4818253#0 859478072#3 859478072#4 24850201#0 24850201#1 24850201#2 24850201#3 24850201#4 854248811 843227662#1 843227661 -843227661"/>
    </person>
    <person id="ped60" type="ped_pedestrian" depart="36.09">
        <walk edges="24849974#0 -432043003#1 1186027598#2 1186027598#3 24715665#1 24715665#2 1172193011 437627508#0 437627508#1 856041979#0 856041979#1 24715603#0 24715603#1 24715603#2 24715603#3 361358030#0 361358030#1 361358030#2 361358030#3 -361358030#4 580558030 580558028#2 580558029"/>
    </person>
    <person id="ped61" type="ped_pedestrian" depart="36.69">
        <walk edges="-656097935 -24859131#1 24850201#3 24850201#4 4818259#0 4818259#1 4818259#2 4818259#3 4818259#4 4818259#5 4818259#6 24859095#4 1095179480#1 1095179480#0 1095179477#6 1095179477#5 1095179477#4 1095179477#3 1095179477#2 1095179477#1 1095179477#0 1095179478#1 24858698#6 24858698#5 24858698#4 24858698#3 24859025#3 24859025#4 1026269351#2"/>
    </person>
    <person id="ped62" type="ped_pedestrian" depart="37.29">
        <walk edges="954684514#1 954684512 954684513#1 -516714775#1 -516714775#0 -1163707423 144114924 24715664#1 -859478072#1 -859478072#2 859478072#3 859478072#4 24850201#0 24850201#1 24850201#2 24850201#3 24850201#4 4818259#0"/>
    </person>
    <person id="ped63" type="ped_pedestrian" depart="37.90">
        <walk edges="1186027605#1 -432046500#2 -1162728917#0 -1162728917#2 -1162728926 -1172193011 -437627508#0 437627508#1 856041979#0 856041979#1 24715603#0 24715603#1 24715603#2 24715603#3 361358030#0 361358030#1 361358030#2 361358030#3 361358030#4 361358030#5 361358030#6 361358030#7 361358030#8 361358030#9 859448270#0 859448270#1 -859448272#3 24836247#1"/>
    </person>
    <person id="ped64" type="ped_pedestrian" depart="38.50">
        <walk edges="-856041979#1 -24715603#0 -24715603#1 -24715603#2 -24715603#3 1135302408 1135302406 -1135302405 -854044801#0 -854044801#1 -854044801#2"/>
    </person>
    <person id="ped65" type="ped_pedestrian" depart="39.10">
        <walk edges="-24846907#14 -24846907#15 1135302404 618045930#2 -618045930#1 -618045930#0 -1135302402 -352403336#3 -352403336#2 -352403336#1 -352403336#0 24713393 904261096#0 904261096#1 904261096#2 904261096#3 904261096#4 904261096#5 866741063#1 866741063#2 618028612#0 618028612#1 618028612#2 1150556469 531777689#2 531777689#1 456118122#2"/>
    </person>
    <person id="ped66" type="ped_pedestrian" depart="39.70">
        <walk edges="-854280392 617718996#3 617718996#2 617718996#1 617718996#0 24847759#2 -846008893#3 846008893#4 846008893#5 904259094 24713393 904261096#0 904261096#1 904261096#2 866735728#1 -618028613#1 -618028613#2 866738547#1"/>
    </person>
    <person id="ped68" type="ped_pedestrian" depart="40.90">
        <walk edges="-866735729 -24703903#7 -24703903#6 24703903#5 -854044801#1 -854044801#2 -854044801#3 -854044801#4 -854044801#5 -854044801#6 -854044801#7 1150560850#1 531793101"/>
    </person>
    <person id="ped69" type="ped_pedestrian" depart="41.51">
        <walk edges="-846008893#1 846008893#0 1162729330#2 -24846907#15 -1135302407 -1135302409 -361358030#0 -361358030#1 -361358030#2 -361358030#3 -361358030#4 -361358030#5 -361358030#6 -361358030#7 -361358030#8 -361358030#9 -456118122#12"/>
    </person>
    <person id="ped70" type="ped_pedestrian" depart="42.11">
        <walk edges="889116247 187679421#4 187679421#3 187679421#1 542005623#1 542005623#0 -124179028#3 1014496956 616920376#4 544680481#0 544680467 621038380#5 621038380#4 621038380#3 544680469 841108606#5 841108606#1 841108607 544678921#5 944470748 372325025 685755049#3 24859095#0 24859094#3 24859094#2 24859094#1 1095179480#0 1095179477#6 1095179477#5 1095179477#4 1095179477#3 1095179477#2 1095179477#1 1095179477#0 1095179478#1 24858698#6 -24858698#5 -24858698#4 -24858698#3 24859025#2"/>
    </person>
    <person id="ped71" type="ped_pedestrian" depart="42.71">
        <walk edges="176472494#0 176472494#1 176472494#2 -616921713#4 616921713#5 361349340 24836297#1 24836297#2 24836297#3 24836297#4 24836297#5 24836297#6 24836297#8 -617718993#0 24836323#0 -456118122#2 531777689#1 531777689#2 1150556469 618028612#2 618028612#1 618028612#0 866741063#2 866741063#1 618028613#3"/>
    </person>
    <person id="ped73" type="ped_pedestrian" depart="43.91">
        <walk edges="-24858698#2 -24858698#3 -24858698#4 -24858698#5 24858698#6 1095179478#1 1095179477#0 1095179477#1 1095179477#2 1095179477#3 1095179477#4 1095179477#5 1095179477#6 1095179480#0 24859094#1 24859094#2 24859094#3 618106730#1 618106730#2 618106730#3 618106730#4 618106730#5 618106730#6 -854248813#0 421567701#0 616927361 24849974#5 24849974#4 24849974#3 24849974#2 24849974#1 24849974#0 432043003#1 432043007#2 432043007#1 1186027599#1"/>
    </person>
    <person id="ped74" type="ped_pedestrian" depart="44.51">
        <walk edges="1186027588#0 -354652706#1 -887431154#2 -887431154#1 -1172193011 24715665#2 24715665#1 1186027598#3 1186027598#2 1162862269#0 -4818253#4 -4818253#3 -4818253#2 -4818253#1 -4818253#0 859478072#3 859478072#4 24850201#0 24850201#1 24850201#2 24850201#3 24850201#4 854248811 843227662#1 1150825147 24859129#1 24859129#0 157051125#1 157051125#2"/>
    </person>
    <person id="ped75" type="ped_pedestrian" depart="45.11">
        <walk edges="580558028#1 580558029 -361358030#6 361358030#7 -24836297#2 -24836297#1 -24836297#0 -616921713#6 944470755 616920375#3 616920375#2 616920375#1 616920375#0 621037694 -569114957#5 531799968#2 531799968#1 531799968#0 531799963 531799965#0"/>
    </person>
    <person id="ped76" type="ped_pedestrian" depart="45.72">
        <walk edges="944470751#2 944470751#1 616927359#1 616927359#2 618106732 618106730#4 618106730#3 618106730#2 618106730#1 24859094#3 24859094#2 24859094#1 1095179480#0 1095179477#6 1095179477#5 1095179477#4 1095179477#3 1095179477#2 1095179477#1 1095179477#0 1095179478#1 24858698#6 -24858698#5"/>
    </person>
    <person id="ped77" type="ped_pedestrian" depart="46.32">
        <walk edges="1156833883 352403336#2 352403336#3 352403336#4 618045930#0 618045930#1 618045930#2 1135302404 1135302406 1135302408 846008895 -616921713#15 -616921713#14 -616921713#13 623558865 1096409934 992941277#1 544680485 621038379#6 621038379#1 621038383 621038382#3 621038382#4 621038384 621038380#4 621038380#3 544680469 841108606#5 841108606#1 841108607 544678921#5 944470748 372325025 685755049#3 24859095#0 24859094#3 24859094#2 24859094#1 1095179480#0"/>
    </person>
    <person id="ped79" type="ped_pedestrian" depart="47.52">
        <walk edges="-618043852#4 618043852#5 4780792#1 4780792#2 4780792#3 4780792#4 4780792#5 4780792#6 4780792#7 4780792#8 4780792#9 4780792#10 4780792#11 4780792#12 4780792#13 1186037619#3 619140707#1 1186037620#1"/>
    </person>
    <person id="ped82" type="ped_pedestrian" depart="49.33">
        <walk edges="1186037615#2 1186037615#3 1186037615#4 1186037615#5 1186037615#6 1138585950#1 -1138585950#0 -1168452026#1 -1168452026#0 -887431154#2 -887431154#1 -1172193011 1186027596 885612151#1 885612151#0 885612152#1 4780781#5 4780781#4 4780781#3 4780781#2 4780781#1 4780781#0 -616921713#15 -616921713#14 -616921713#13 623558865 1096409934 992941277#1 544680485 621038379#5 621038379#4 621038379#3 544680748 548010128#1 548010128#0 548010128#7 841108611 841108606#3"/>
    </person>
    <person id="ped83" type="ped_pedestrian" depart="49.93">
        <walk edges="24850172#3 24850172#2 24850172#1 -4818253#1 -4818253#2 -4818253#3 -4818253#4 -24714067#0 -24714067#1 -24714067#2 -24714067#3"/>
    </person>
    <person id="ped84" type="ped_pedestrian" depart="50.53">
        <walk edges="992941277#2 1096409933 616920376#1 616920376#2 616920376#3 616920376#4 616920376#5 616920376#6 944470746#0 944470746#1 944470745 372325026 616927359#1 944470751#0 537587869 -854248813#0 -1135303298 -941489846 854248811 843227662#1 1150825147 24859129#1 24859129#0 157051125#1 656097939#1 656097939#0"/>
    </person>
    <person id="ped85" type="ped_pedestrian" depart="51.13">
        <walk edges="904281984#0 -1135302411#0 -1135302412 -421567701#0 -854248813#0 -1135303298 24850172#6 24850172#5 887488414"/>
    </person>
    <person id="ped86" type="ped_pedestrian" depart="51.73">
        <walk edges="685903218#14 685903218#13 685903218#12 685903218#11 685903218#10 685903218#9 685903218#8 685903218#7 616923743#1 859455980#1 859455980#0 -616921713#1 -616813098#1"/>
    </person>
    <person id="ped87" type="ped_pedestrian" depart="52.33">
        <walk edges="217325381#3 217325381#2 1186037618#1 1186037618#0 1186037615#3 1186037615#4 1186037615#5 1186037615#6 -617831539#4 -4780792#10 -4780792#9 4780792#8 4780792#7 4780792#6 4780792#5 4780792#4 4780792#3 4780792#2 4780792#1 4780792#0 -1162729330#1 -1162729330#2 -846008893#0"/>
    </person>
    <person id="ped89" type="ped_pedestrian" depart="53.54">
        <walk edges="1112322334#1 1107792544#0 1107792544#1 1107792543#2 1107792550 1135992415#2 1107792551#0 1107792546#2 1110162235#1 1150556488#2 24836323#0 -617718993#0 24836297#8 24836297#6 24836297#5 24836297#4 24836297#3 24836297#2 24836297#1 24836297#0 -616921713#7 -616921713#9 -616921713#10 -616921713#11 944470753"/>
    </person>
    <person id="ped90" type="ped_pedestrian" depart="54.14">
        <walk edges="1191236943 372325025 944470748 544678921#5 841108607 841108606#1 841108606#5 544680469 621038380#3 621038380#4 621038384 621038382#4 621038382#3 621038383 621038379#1 621038379#6 544680485 992941277#1 1096409934 623558865 -616921713#13 -616921713#14 -616921713#15 4780781#0 4780781#1 4780781#2 4780781#3 4780781#4 4780781#5 885612152#1 885612151#0 885612151#1 1186027596 -1172193011 -887431154#1 -887431154#2 354652706#1 1186027588#1 1185813521#2 1186027586"/>
    </person>
    <person id="ped91" type="ped_pedestrian" depart="54.74">
        <walk edges="897963864#1 352403336#2 352403336#3 352403336#4 618045930#0 618045930#1 618045930#2 1135302404 1135302406 1135302408 -24715603#3 -24715603#2 -24715603#1 -24715603#0 -856041979#1 -856041979#0 -437627508#1 -437627508#0 -1172193011 -1162728926 -1162728917#2 -1162728917#0 -432046500#2 1087581873 621270374#0 24849973#2 474875027#1 516714775#0 -516714775#1 -516714775#2 954684511 954684514#2"/>
    </person>
    <person id="ped92" type="ped_pedestrian" depart="55.34">
        <walk edges="24850906 425206430#1 425206430#2 432046500#2 432043007#0 432043007#1 432043007#2 -1162862269#0 -1021248528#1 -1021248528#0 -187679421#7 -187679421#6 -187679421#5 -187679421#4 -187679421#3 -187679421#1 542005623#1 542005623#0 -124179028#3 1014496956 616920376#4 544680481#0 544680467 621038380#5 621038380#4 621038380#3 544680469 841108606#5 841108606#1 841108607 544678921#6 544678921#7 621037694 -569114957#5 -569114957#6 569114952#0 569114952#1 569114945 569114946#0 569114946#1"/>
    </person>
    <person id="ped93" type="ped_pedestrian" depart="55.94">
        <walk edges="-569114952#0 685903218#8 685903218#9 531799965#2 531799965#3 531799965#4 531799965#5 531799965#6 -375576693 517139709#0 517139709#1 517139709#2 517139709#3 24858698#4 -929664770 -929664772"/>
    </person>
    <person id="ped94" type="ped_pedestrian" depart="56.54">
        <walk edges="904261096#5 904261096#4 904261096#3 904261096#2 904261096#1 904261096#0 866735729 24703903#7 24703903#6 24703903#5 24703903#3 24703903#2 24703903#1 24703903#0 616921713#14 -616921713#13 623558865 1096409934 992941277#1 544680485 621038379#6 621038379#1 621038383 621038382#3 621038382#4 621038384 621038380#4 621038380#3 544680469 841108606#5 841108606#1 841108607 544678921#5 944470748 372325025 685755049#3 24859095#0 24859095#1 24859095#2 24859099#1 24859099#2"/>
    </person>
    <person id="ped95" type="ped_pedestrian" depart="57.15">
        <walk edges="24850011 24850906 425206430#1 425206430#2 -432046500#2 -1162728917#0 -1162728917#2 -1162728926 1186027596 885612151#1 885612151#0 885612152#1 4780781#5 4780781#4 4780781#3 4780781#2 4780781#1 4780781#0 -616921713#15 -616921713#14 -616921713#13 -616921713#12 -616921713#11 -616921713#10 -616921713#9 361349827#0 616920374#1 616920374#0 616920375#3"/>
    </person>
    <person id="ped96" type="ped_pedestrian" depart="57.75">
        <walk edges="-24836098#3 24836247#0 24836247#1 24836247#2 -616921713#1 -616921713#4 -616921713#5 944470755 616920375#3 580564319 580564317#2 621037789 621037786#4 621037786#5 621037786#6 548010145 548010128#3 548010128#2 548010128#1 548010128#0 544680749 621038380#3 621038380#2 621038380#1 544680468 552454636#1 552454641 616920376#6 944470746#0 944470746#1 944470745 372325026 616927359#1 944470751#0 537587869 -854248813#0 -1135303298 -941489846 24850201#4 24850201#3 -24859131#1 24859131#0"/>
    </person>